data_c2m_pl_acc
_audit_creation_date              2017-11-12
_audit_creation_method            'Materials Studio'
_symmetry_space_group_name_H-M    'CM'
_symmetry_Int_Tables_number       8
_symmetry_cell_setting            monoclinic
loop_
_symmetry_equiv_pos_as_xyz
  x,y,z
  x,-y,z
  x+1/2,y+1/2,z
  x+1/2,-y+1/2,z
_cell_length_a                    71.7000
_cell_length_b                    41.5700
_cell_length_c                    41.4500
_cell_angle_alpha                 90.0000
_cell_angle_beta                  125.0800
_cell_angle_gamma                 90.0000
loop_
_atom_site_label
_atom_site_type_symbol
_atom_site_fract_x
_atom_site_fract_y
_atom_site_fract_z
_atom_site_U_iso_or_equiv
_atom_site_adp_type
_atom_site_occupancy
Cu1    Cu    0.22315   0.11739   0.96224   0.05000  Uiso   1.00
Cu2    Cu    0.22311   0.16260   0.00724   0.05000  Uiso   1.00
Cu3    Cu    0.22323   0.11532   0.72896   0.05000  Uiso   1.00
Cu4    Cu    0.22328   0.16051   0.68398   0.05000  Uiso   1.00
O5     O     0.22299   0.08806   0.69297   0.05000  Uiso   1.00
O6     O     0.22300   0.12592   0.65563   0.05000  Uiso   1.00
O7     O     0.22288   0.08999   0.99740   0.05000  Uiso   1.00
O8     O     0.22339   0.15232   0.93450   0.05000  Uiso   1.00
O9     O     0.22324   0.18992   0.97198   0.05000  Uiso   1.00
O10    O     0.22291   0.12762   0.03499   0.05000  Uiso   1.00
O11    O     0.22347   0.15060   0.75705   0.05000  Uiso   1.00
O12    O     0.69178   0.38083   0.69433   0.05000  Uiso   1.00
O13    O     0.69191   0.34320   0.65688   0.05000  Uiso   1.00
O14    O     0.22352   0.18802   0.71930   0.05000  Uiso   1.00
O15    O     0.60356   0.46862   0.69683   0.05000  Uiso   1.00
O16    O     0.10337   0.03147   0.75965   0.05000  Uiso   1.00
O17    O     0.06574   0.03130   0.72194   0.05000  Uiso   1.00
O18    O     0.56593   0.46877   0.65943   0.05000  Uiso   1.00
O19    O     0.19168   0.12160   0.93438   0.05000  Uiso   1.00
O20    O     0.19180   0.15920   0.97211   0.05000  Uiso   1.00
O21    O     0.84284   0.46857   0.93511   0.05000  Uiso   1.00
O22    O     0.88047   0.46874   0.97267   0.05000  Uiso   1.00
O23    O     0.75469   0.38142   0.75646   0.05000  Uiso   1.00
O24    O     0.75464   0.34383   0.71880   0.05000  Uiso   1.00
O25    O     0.34289   0.03149   0.99818   0.05000  Uiso   1.00
O26    O     0.38051   0.03131   0.03535   0.05000  Uiso   1.00
O27    O     0.25441   0.15888   0.03451   0.05000  Uiso   1.00
O28    O     0.25463   0.12103   0.99740   0.05000  Uiso   1.00
N29    N     0.22318   0.27560   0.84468   0.05000  Uiso   1.00
N30    N     0.58518   0.36354   0.57066   0.05000  Uiso   1.00
N31    N     0.08549   0.14052   0.84490   0.05000  Uiso   1.00
N32    N     0.86094   0.36427   0.84508   0.05000  Uiso   1.00
N33    N     0.36097   0.14058   0.11961   0.05000  Uiso   1.00
C34    C     0.22290   0.09639   0.66334   0.05000  Uiso   1.00
C35    C     0.22268   0.07170   0.63753   0.05000  Uiso   1.00
C36    C     0.22276   0.03871   0.64561   0.05000  Uiso   1.00
C37    C     0.22252   0.01655   0.62015   0.05000  Uiso   1.00
C38    C     0.22220   0.02588   0.58784   0.05000  Uiso   1.00
C39    C     0.22022   0.97092   0.41113   0.05000  Uiso   1.00
C40    C     0.21995   0.97093   0.37709   0.05000  Uiso   1.00
C41    C     0.21963   0.02907   0.30621   0.05000  Uiso   1.00
C42    C     0.21964   0.02908   0.27244   0.05000  Uiso   1.00
C43    C     0.22148   0.02627   0.09991   0.05000  Uiso   1.00
C44    C     0.22207   0.01739   0.06666   0.05000  Uiso   1.00
C45    C     0.22252   0.04025   0.04275   0.05000  Uiso   1.00
C46    C     0.22235   0.07297   0.05165   0.05000  Uiso   1.00
C47    C     0.22170   0.08172   0.08414   0.05000  Uiso   1.00
C48    C     0.22129   0.05857   0.10857   0.05000  Uiso   1.00
C49    C     0.22276   0.09811   0.02685   0.05000  Uiso   1.00
C50    C     0.22337   0.18182   0.94254   0.05000  Uiso   1.00
C51    C     0.22345   0.20700   0.91756   0.05000  Uiso   1.00
C52    C     0.22368   0.19876   0.88474   0.05000  Uiso   1.00
C53    C     0.22367   0.22374   0.86224   0.05000  Uiso   1.00
C54    C     0.22342   0.25575   0.87105   0.05000  Uiso   1.00
C55    C     0.22332   0.25524   0.81908   0.05000  Uiso   1.00
C56    C     0.22362   0.22340   0.82902   0.05000  Uiso   1.00
C57    C     0.22371   0.19796   0.80709   0.05000  Uiso   1.00
C58    C     0.22361   0.20559   0.77378   0.05000  Uiso   1.00
C59    C     0.22345   0.23820   0.76385   0.05000  Uiso   1.00
C60    C     0.22332   0.26327   0.78639   0.05000  Uiso   1.00
C61    C     0.22355   0.18009   0.74893   0.05000  Uiso   1.00
C62    C     0.68111   0.36193   0.66494   0.05000  Uiso   1.00
C63    C     0.65597   0.36168   0.63979   0.05000  Uiso   1.00
C64    C     0.64358   0.38191   0.64842   0.05000  Uiso   1.00
C65    C     0.61986   0.38069   0.62353   0.05000  Uiso   1.00
C66    C     0.60826   0.36044   0.59101   0.05000  Uiso   1.00
C67    C     0.58208   0.38621   0.59078   0.05000  Uiso   1.00
C68    C     0.60371   0.39754   0.62445   0.05000  Uiso   1.00
C69    C     0.60512   0.42083   0.64984   0.05000  Uiso   1.00
C70    C     0.58447   0.43312   0.64175   0.05000  Uiso   1.00
C71    C     0.56325   0.42172   0.60886   0.05000  Uiso   1.00
C72    C     0.56181   0.39822   0.58315   0.05000  Uiso   1.00
C73    C     0.58471   0.45803   0.66732   0.05000  Uiso   1.00
C74    C     0.08448   0.04217   0.75137   0.05000  Uiso   1.00
C75    C     0.08414   0.06761   0.77580   0.05000  Uiso   1.00
C76    C     0.10468   0.08052   0.80832   0.05000  Uiso   1.00
C77    C     0.10318   0.10493   0.82979   0.05000  Uiso   1.00
C78    C     0.08252   0.11647   0.82027   0.05000  Uiso   1.00
C79    C     0.10839   0.14391   0.87035   0.05000  Uiso   1.00
C80    C     0.11974   0.12233   0.86202   0.05000  Uiso   1.00
C81    C     0.14345   0.12046   0.88466   0.05000  Uiso   1.00
C82    C     0.15590   0.14150   0.91712   0.05000  Uiso   1.00
C83    C     0.14419   0.16352   0.92562   0.05000  Uiso   1.00
C84    C     0.12027   0.16489   0.90230   0.05000  Uiso   1.00
C85    C     0.18101   0.14067   0.94240   0.05000  Uiso   1.00
C86    C     0.06813   0.15818   0.84455   0.05000  Uiso   1.00
C87    C     0.06907   0.19182   0.84720   0.05000  Uiso   1.00
C88    C     0.05216   0.20895   0.84681   0.05000  Uiso   1.00
C89    C     0.03419   0.19267   0.84423   0.05000  Uiso   1.00
C90    C     0.03338   0.15897   0.84175   0.05000  Uiso   1.00
C91    C     0.05013   0.14187   0.84168   0.05000  Uiso   1.00
C92    C     0.01642   0.21067   0.84432   0.05000  Uiso   1.00
C93    C     0.01118   0.24255   0.83081   0.05000  Uiso   1.00
C94    C     0.99429   0.25943   0.83074   0.05000  Uiso   1.00
C95    C     0.98250   0.24488   0.84462   0.05000  Uiso   1.00
C96    C     0.98784   0.21307   0.85833   0.05000  Uiso   1.00
C97    C     0.00454   0.19608   0.85798   0.05000  Uiso   1.00
C98    C     0.96470   0.26272   0.84478   0.05000  Uiso   1.00
C99    C     0.95958   0.25473   0.87177   0.05000  Uiso   1.00
C100   C     0.94277   0.27156   0.87198   0.05000  Uiso   1.00
C101   C     0.93057   0.29647   0.84491   0.05000  Uiso   1.00
C102   C     0.91263   0.31404   0.84495   0.05000  Uiso   1.00
C103   C     0.91343   0.31621   0.87951   0.05000  Uiso   1.00
C104   C     0.89652   0.33285   0.87960   0.05000  Uiso   1.00
C105   C     0.87838   0.34727   0.84501   0.05000  Uiso   1.00
C106   C     0.86380   0.38621   0.87179   0.05000  Uiso   1.00
C107   C     0.84310   0.39755   0.86229   0.05000  Uiso   1.00
C108   C     0.84153   0.42086   0.88484   0.05000  Uiso   1.00
C109   C     0.86204   0.43296   0.91827   0.05000  Uiso   1.00
C110   C     0.88321   0.42130   0.92780   0.05000  Uiso   1.00
C111   C     0.88429   0.39781   0.90458   0.05000  Uiso   1.00
C112   C     0.86171   0.45795   0.94320   0.05000  Uiso   1.00
C113   C     0.82661   0.38174   0.82837   0.05000  Uiso   1.00
C114   C     0.80289   0.38298   0.80614   0.05000  Uiso   1.00
C115   C     0.79052   0.36286   0.77270   0.05000  Uiso   1.00
C116   C     0.76539   0.36275   0.74815   0.05000  Uiso   1.00
C117   C     0.80233   0.34239   0.76284   0.05000  Uiso   1.00
C118   C     0.82626   0.34163   0.78577   0.05000  Uiso   1.00
C119   C     0.83805   0.36178   0.81856   0.05000  Uiso   1.00
C120   C     0.87745   0.34501   0.81038   0.05000  Uiso   1.00
C121   C     0.89451   0.32867   0.81040   0.05000  Uiso   1.00
C122   C     0.93561   0.30437   0.81780   0.05000  Uiso   1.00
C123   C     0.95260   0.28778   0.81787   0.05000  Uiso   1.00
C124   C     0.06199   0.10417   0.78828   0.05000  Uiso   1.00
C125   C     0.06299   0.07955   0.76610   0.05000  Uiso   1.00
C126   C     0.56776   0.34671   0.53525   0.05000  Uiso   1.00
C127   C     0.57274   0.31788   0.52407   0.05000  Uiso   1.00
C128   C     0.55594   0.30171   0.48982   0.05000  Uiso   1.00
C129   C     0.53370   0.31397   0.46583   0.05000  Uiso   1.00
C130   C     0.52866   0.34277   0.47697   0.05000  Uiso   1.00
C131   C     0.54549   0.35891   0.51123   0.05000  Uiso   1.00
C132   C     0.51589   0.29680   0.42943   0.05000  Uiso   1.00
C133   C     0.49363   0.30905   0.40526   0.05000  Uiso   1.00
C134   C     0.47688   0.29279   0.37100   0.05000  Uiso   1.00
C135   C     0.48200   0.26390   0.36011   0.05000  Uiso   1.00
C136   C     0.50426   0.25169   0.38428   0.05000  Uiso   1.00
C137   C     0.52099   0.26794   0.41849   0.05000  Uiso   1.00
C138   C     0.46423   0.24637   0.32399   0.05000  Uiso   1.00
C139   C     0.46938   0.21719   0.31373   0.05000  Uiso   1.00
C140   C     0.45264   0.20038   0.28006   0.05000  Uiso   1.00
C141   C     0.43032   0.21234   0.25579   0.05000  Uiso   1.00
C142   C     0.41249   0.19414   0.22041   0.05000  Uiso   1.00
C143   C     0.39011   0.20587   0.19610   0.05000  Uiso   1.00
C144   C     0.37330   0.18841   0.16311   0.05000  Uiso   1.00
C145   C     0.37842   0.15881   0.15358   0.05000  Uiso   1.00
C146   C     0.36386   0.11664   0.10047   0.05000  Uiso   1.00
C147   C     0.34320   0.10474   0.06926   0.05000  Uiso   1.00
C148   C     0.34164   0.08036   0.04470   0.05000  Uiso   1.00
C149   C     0.36213   0.06772   0.05254   0.05000  Uiso   1.00
C150   C     0.38328   0.07997   0.08445   0.05000  Uiso   1.00
C151   C     0.38433   0.10457   0.10865   0.05000  Uiso   1.00
C152   C     0.36177   0.04221   0.02747   0.05000  Uiso   1.00
C153   C     0.32666   0.12176   0.06885   0.05000  Uiso   1.00
C154   C     0.30294   0.11978   0.04417   0.05000  Uiso   1.00
C155   C     0.29037   0.14084   0.05154   0.05000  Uiso   1.00
C156   C     0.26525   0.14013   0.02659   0.05000  Uiso   1.00
C157   C     0.30196   0.16300   0.08313   0.05000  Uiso   1.00
C158   C     0.32585   0.16442   0.10755   0.05000  Uiso   1.00
C159   C     0.33796   0.14342   0.09969   0.05000  Uiso   1.00
C160   C     0.40082   0.14719   0.17787   0.05000  Uiso   1.00
C161   C     0.41764   0.16460   0.21085   0.05000  Uiso   1.00
C162   C     0.42517   0.24161   0.26593   0.05000  Uiso   1.00
C163   C     0.44193   0.25843   0.29964   0.05000  Uiso   1.00
C164   C     0.62028   0.34041   0.58193   0.05000  Uiso   1.00
C165   C     0.64419   0.34114   0.60659   0.05000  Uiso   1.00
C166   C     0.22247   0.31047   0.84370   0.05000  Uiso   1.00
C167   C     0.21762   0.32749   0.81044   0.05000  Uiso   1.00
C168   C     0.21660   0.36111   0.80938   0.05000  Uiso   1.00
C169   C     0.22033   0.37856   0.84159   0.05000  Uiso   1.00
C170   C     0.22530   0.36164   0.87490   0.05000  Uiso   1.00
C171   C     0.22637   0.32809   0.87590   0.05000  Uiso   1.00
C172   C     0.21913   0.41418   0.84058   0.05000  Uiso   1.00
C173   C     0.21726   0.43141   0.80974   0.05000  Uiso   1.00
C174   C     0.21657   0.46500   0.80921   0.05000  Uiso   1.00
C175   C     0.21772   0.48216   0.83947   0.05000  Uiso   1.00
C176   C     0.21937   0.46492   0.87013   0.05000  Uiso   1.00
C177   C     0.22006   0.43132   0.87067   0.05000  Uiso   1.00
C178   C     0.22309   0.26438   0.90327   0.05000  Uiso   1.00
C179   C     0.22315   0.23976   0.92648   0.05000  Uiso   1.00
C180   C     0.22212   0.05828   0.57912   0.05000  Uiso   1.00
C181   C     0.22237   0.08117   0.60436   0.05000  Uiso   1.00
H182   H     0.22301   0.03096   0.67224   0.00000  Uiso   1.00
H183   H     0.22033   0.94711   0.42487   0.00000  Uiso   1.00
H184   H     0.21983   0.94718   0.36322   0.00000  Uiso   1.00
H185   H     0.21961   0.05299   0.31963   0.00000  Uiso   1.00
H186   H     0.21965   0.05283   0.25870   0.00000  Uiso   1.00
H187   H     0.22301   0.03235   0.01691   0.00000  Uiso   1.00
H188   H     0.22150   0.10819   0.09113   0.00000  Uiso   1.00
H189   H     0.22082   0.06554   0.13469   0.00000  Uiso   1.00
H190   H     0.22387   0.17239   0.87736   0.00000  Uiso   1.00
H191   H     0.22386   0.17206   0.81629   0.00000  Uiso   1.00
H192   H     0.22342   0.24454   0.73707   0.00000  Uiso   1.00
H193   H     0.22322   0.28961   0.77863   0.00000  Uiso   1.00
H194   H     0.65299   0.39858   0.67508   0.00000  Uiso   1.00
H195   H     0.62249   0.42931   0.67602   0.00000  Uiso   1.00
H196   H     0.54665   0.43166   0.60262   0.00000  Uiso   1.00
H197   H     0.54479   0.38897   0.55676   0.00000  Uiso   1.00
H198   H     0.12173   0.07095   0.81624   0.00000  Uiso   1.00
H199   H     0.15214   0.10236   0.87670   0.00000  Uiso   1.00
H200   H     0.15419   0.18056   0.95180   0.00000  Uiso   1.00
H201   H     0.11056   0.18238   0.90876   0.00000  Uiso   1.00
H202   H     0.08367   0.20536   0.84969   0.00000  Uiso   1.00
H203   H     0.05290   0.23633   0.84859   0.00000  Uiso   1.00
H204   H     0.01897   0.14531   0.83977   0.00000  Uiso   1.00
H205   H     0.04910   0.11452   0.83927   0.00000  Uiso   1.00
H206   H     0.02072   0.25488   0.81978   0.00000  Uiso   1.00
H207   H     0.99000   0.28522   0.81935   0.00000  Uiso   1.00
H208   H     0.97853   0.20087   0.86988   0.00000  Uiso   1.00
H209   H     0.00848   0.17015   0.86892   0.00000  Uiso   1.00
H210   H     0.96916   0.23437   0.89376   0.00000  Uiso   1.00
H211   H     0.93888   0.26508   0.89427   0.00000  Uiso   1.00
H212   H     0.92795   0.30435   0.90781   0.00000  Uiso   1.00
H213   H     0.89744   0.33475   0.90792   0.00000  Uiso   1.00
H214   H     0.82410   0.42950   0.87603   0.00000  Uiso   1.00
H215   H     0.89981   0.43099   0.95478   0.00000  Uiso   1.00
H216   H     0.90118   0.38821   0.91178   0.00000  Uiso   1.00
H217   H     0.79411   0.39985   0.81518   0.00000  Uiso   1.00
H218   H     0.79241   0.32612   0.73586   0.00000  Uiso   1.00
H219   H     0.83540   0.32490   0.77732   0.00000  Uiso   1.00
H220   H     0.86274   0.35652   0.78200   0.00000  Uiso   1.00
H221   H     0.89362   0.32729   0.78208   0.00000  Uiso   1.00
H222   H     0.92582   0.32446   0.79547   0.00000  Uiso   1.00
H223   H     0.95659   0.29475   0.79585   0.00000  Uiso   1.00
H224   H     0.04513   0.11411   0.78087   0.00000  Uiso   1.00
H225   H     0.04637   0.06917   0.73987   0.00000  Uiso   1.00
H226   H     0.59067   0.30738   0.54301   0.00000  Uiso   1.00
H227   H     0.56024   0.27830   0.48112   0.00000  Uiso   1.00
H228   H     0.51071   0.35320   0.45802   0.00000  Uiso   1.00
H229   H     0.54094   0.38228   0.51958   0.00000  Uiso   1.00
H230   H     0.48907   0.33247   0.41350   0.00000  Uiso   1.00
H231   H     0.45887   0.30297   0.35162   0.00000  Uiso   1.00
H232   H     0.50884   0.22828   0.37606   0.00000  Uiso   1.00
H233   H     0.53894   0.25753   0.43760   0.00000  Uiso   1.00
H234   H     0.48738   0.20696   0.33295   0.00000  Uiso   1.00
H235   H     0.45705   0.17670   0.27206   0.00000  Uiso   1.00
H236   H     0.38550   0.22984   0.20317   0.00000  Uiso   1.00
H237   H     0.35518   0.19817   0.14357   0.00000  Uiso   1.00
H238   H     0.32421   0.07129   0.01930   0.00000  Uiso   1.00
H239   H     0.39988   0.06985   0.09090   0.00000  Uiso   1.00
H240   H     0.40126   0.11470   0.13437   0.00000  Uiso   1.00
H241   H     0.29435   0.10157   0.01905   0.00000  Uiso   1.00
H242   H     0.29187   0.18014   0.08913   0.00000  Uiso   1.00
H243   H     0.33481   0.18237   0.13294   0.00000  Uiso   1.00
H244   H     0.40549   0.12327   0.17080   0.00000  Uiso   1.00
H245   H     0.43570   0.15458   0.23008   0.00000  Uiso   1.00
H246   H     0.40718   0.25188   0.24661   0.00000  Uiso   1.00
H247   H     0.43735   0.28214   0.30728   0.00000  Uiso   1.00
H248   H     0.61066   0.32400   0.55504   0.00000  Uiso   1.00
H249   H     0.65412   0.32478   0.59945   0.00000  Uiso   1.00
H250   H     0.21445   0.31391   0.78382   0.00000  Uiso   1.00
H251   H     0.21271   0.37457   0.78219   0.00000  Uiso   1.00
H252   H     0.22852   0.37527   0.90153   0.00000  Uiso   1.00
H253   H     0.23049   0.31502   0.90346   0.00000  Uiso   1.00
H254   H     0.21629   0.41800   0.78482   0.00000  Uiso   1.00
H255   H     0.21506   0.47877   0.78402   0.00000  Uiso   1.00
H256   H     0.22016   0.47833   0.89488   0.00000  Uiso   1.00
H257   H     0.22139   0.41782   0.89586   0.00000  Uiso   1.00
H258   H     0.22278   0.29085   0.91013   0.00000  Uiso   1.00
H259   H     0.22295   0.24654   0.95293   0.00000  Uiso   1.00
H260   H     0.22186   0.06543   0.55231   0.00000  Uiso   1.00
H261   H     0.22232   0.10779   0.59771   0.00000  Uiso   1.00
Cu262  Cu    0.77685   0.11739   0.03776   0.05000  Uiso   1.00
Cu263  Cu    0.77689   0.16260   0.99276   0.05000  Uiso   1.00
Cu264  Cu    0.77677   0.11532   0.27104   0.05000  Uiso   1.00
Cu265  Cu    0.77672   0.16051   0.31602   0.05000  Uiso   1.00
O266   O     0.77701   0.08806   0.30703   0.05000  Uiso   1.00
O267   O     0.77700   0.12592   0.34437   0.05000  Uiso   1.00
O268   O     0.77712   0.08999   0.00260   0.05000  Uiso   1.00
O269   O     0.77661   0.15232   0.06550   0.05000  Uiso   1.00
O270   O     0.77676   0.18992   0.02802   0.05000  Uiso   1.00
O271   O     0.77709   0.12762   0.96501   0.05000  Uiso   1.00
O272   O     0.77653   0.15060   0.24295   0.05000  Uiso   1.00
O273   O     0.30822   0.38083   0.30567   0.05000  Uiso   1.00
O274   O     0.30809   0.34320   0.34312   0.05000  Uiso   1.00
O275   O     0.77648   0.18802   0.28070   0.05000  Uiso   1.00
O276   O     0.39644   0.46862   0.30317   0.05000  Uiso   1.00
O277   O     0.89663   0.03147   0.24035   0.05000  Uiso   1.00
O278   O     0.93426   0.03130   0.27806   0.05000  Uiso   1.00
O279   O     0.43407   0.46877   0.34057   0.05000  Uiso   1.00
O280   O     0.80832   0.12160   0.06562   0.05000  Uiso   1.00
O281   O     0.80820   0.15920   0.02789   0.05000  Uiso   1.00
O282   O     0.15716   0.46857   0.06489   0.05000  Uiso   1.00
O283   O     0.11953   0.46874   0.02733   0.05000  Uiso   1.00
O284   O     0.24531   0.38142   0.24354   0.05000  Uiso   1.00
O285   O     0.24536   0.34383   0.28120   0.05000  Uiso   1.00
O286   O     0.65711   0.03149   0.00182   0.05000  Uiso   1.00
O287   O     0.61949   0.03131   0.96465   0.05000  Uiso   1.00
O288   O     0.74559   0.15888   0.96549   0.05000  Uiso   1.00
O289   O     0.74537   0.12103   0.00260   0.05000  Uiso   1.00
N290   N     0.77682   0.27560   0.15532   0.05000  Uiso   1.00
N291   N     0.41482   0.36354   0.42934   0.05000  Uiso   1.00
N292   N     0.91451   0.14052   0.15510   0.05000  Uiso   1.00
N293   N     0.13906   0.36427   0.15492   0.05000  Uiso   1.00
N294   N     0.63903   0.14058   0.88039   0.05000  Uiso   1.00
C295   C     0.77710   0.09639   0.33666   0.05000  Uiso   1.00
C296   C     0.77732   0.07170   0.36247   0.05000  Uiso   1.00
C297   C     0.77724   0.03871   0.35439   0.05000  Uiso   1.00
C298   C     0.77748   0.01655   0.37985   0.05000  Uiso   1.00
C299   C     0.77780   0.02588   0.41216   0.05000  Uiso   1.00
C300   C     0.77978   0.97092   0.58887   0.05000  Uiso   1.00
C301   C     0.78005   0.97093   0.62291   0.05000  Uiso   1.00
C302   C     0.78037   0.02907   0.69379   0.05000  Uiso   1.00
C303   C     0.78036   0.02908   0.72756   0.05000  Uiso   1.00
C304   C     0.77852   0.02627   0.90009   0.05000  Uiso   1.00
C305   C     0.77793   0.01739   0.93334   0.05000  Uiso   1.00
C306   C     0.77748   0.04025   0.95725   0.05000  Uiso   1.00
C307   C     0.77765   0.07297   0.94835   0.05000  Uiso   1.00
C308   C     0.77830   0.08172   0.91586   0.05000  Uiso   1.00
C309   C     0.77871   0.05857   0.89143   0.05000  Uiso   1.00
C310   C     0.77724   0.09811   0.97315   0.05000  Uiso   1.00
C311   C     0.77663   0.18182   0.05746   0.05000  Uiso   1.00
C312   C     0.77655   0.20700   0.08244   0.05000  Uiso   1.00
C313   C     0.77632   0.19876   0.11526   0.05000  Uiso   1.00
C314   C     0.77633   0.22374   0.13776   0.05000  Uiso   1.00
C315   C     0.77658   0.25575   0.12895   0.05000  Uiso   1.00
C316   C     0.77668   0.25524   0.18092   0.05000  Uiso   1.00
C317   C     0.77638   0.22340   0.17098   0.05000  Uiso   1.00
C318   C     0.77629   0.19796   0.19291   0.05000  Uiso   1.00
C319   C     0.77639   0.20559   0.22622   0.05000  Uiso   1.00
C320   C     0.77655   0.23820   0.23615   0.05000  Uiso   1.00
C321   C     0.77668   0.26327   0.21361   0.05000  Uiso   1.00
C322   C     0.77645   0.18009   0.25107   0.05000  Uiso   1.00
C323   C     0.31889   0.36193   0.33506   0.05000  Uiso   1.00
C324   C     0.34403   0.36168   0.36021   0.05000  Uiso   1.00
C325   C     0.35642   0.38191   0.35158   0.05000  Uiso   1.00
C326   C     0.38014   0.38069   0.37647   0.05000  Uiso   1.00
C327   C     0.39174   0.36044   0.40899   0.05000  Uiso   1.00
C328   C     0.41792   0.38621   0.40922   0.05000  Uiso   1.00
C329   C     0.39629   0.39754   0.37555   0.05000  Uiso   1.00
C330   C     0.39488   0.42083   0.35016   0.05000  Uiso   1.00
C331   C     0.41553   0.43312   0.35825   0.05000  Uiso   1.00
C332   C     0.43675   0.42172   0.39114   0.05000  Uiso   1.00
C333   C     0.43819   0.39822   0.41685   0.05000  Uiso   1.00
C334   C     0.41529   0.45803   0.33268   0.05000  Uiso   1.00
C335   C     0.91552   0.04217   0.24863   0.05000  Uiso   1.00
C336   C     0.91586   0.06761   0.22420   0.05000  Uiso   1.00
C337   C     0.89532   0.08052   0.19168   0.05000  Uiso   1.00
C338   C     0.89682   0.10493   0.17021   0.05000  Uiso   1.00
C339   C     0.91748   0.11647   0.17973   0.05000  Uiso   1.00
C340   C     0.89161   0.14391   0.12965   0.05000  Uiso   1.00
C341   C     0.88026   0.12233   0.13798   0.05000  Uiso   1.00
C342   C     0.85655   0.12046   0.11534   0.05000  Uiso   1.00
C343   C     0.84410   0.14150   0.08288   0.05000  Uiso   1.00
C344   C     0.85581   0.16352   0.07438   0.05000  Uiso   1.00
C345   C     0.87973   0.16489   0.09770   0.05000  Uiso   1.00
C346   C     0.81899   0.14067   0.05760   0.05000  Uiso   1.00
C347   C     0.93187   0.15818   0.15545   0.05000  Uiso   1.00
C348   C     0.93093   0.19182   0.15280   0.05000  Uiso   1.00
C349   C     0.94784   0.20895   0.15319   0.05000  Uiso   1.00
C350   C     0.96581   0.19267   0.15577   0.05000  Uiso   1.00
C351   C     0.96662   0.15897   0.15825   0.05000  Uiso   1.00
C352   C     0.94987   0.14187   0.15832   0.05000  Uiso   1.00
C353   C     0.98358   0.21067   0.15568   0.05000  Uiso   1.00
C354   C     0.98882   0.24255   0.16919   0.05000  Uiso   1.00
C355   C     0.00571   0.25943   0.16926   0.05000  Uiso   1.00
C356   C     0.01750   0.24488   0.15538   0.05000  Uiso   1.00
C357   C     0.01216   0.21307   0.14167   0.05000  Uiso   1.00
C358   C     0.99546   0.19608   0.14202   0.05000  Uiso   1.00
C359   C     0.03530   0.26272   0.15522   0.05000  Uiso   1.00
C360   C     0.04042   0.25473   0.12823   0.05000  Uiso   1.00
C361   C     0.05723   0.27156   0.12802   0.05000  Uiso   1.00
C362   C     0.06943   0.29647   0.15509   0.05000  Uiso   1.00
C363   C     0.08737   0.31404   0.15505   0.05000  Uiso   1.00
C364   C     0.08657   0.31621   0.12049   0.05000  Uiso   1.00
C365   C     0.10348   0.33285   0.12040   0.05000  Uiso   1.00
C366   C     0.12162   0.34727   0.15499   0.05000  Uiso   1.00
C367   C     0.13620   0.38621   0.12821   0.05000  Uiso   1.00
C368   C     0.15690   0.39755   0.13771   0.05000  Uiso   1.00
C369   C     0.15847   0.42086   0.11516   0.05000  Uiso   1.00
C370   C     0.13796   0.43296   0.08173   0.05000  Uiso   1.00
C371   C     0.11679   0.42130   0.07220   0.05000  Uiso   1.00
C372   C     0.11571   0.39781   0.09542   0.05000  Uiso   1.00
C373   C     0.13829   0.45795   0.05680   0.05000  Uiso   1.00
C374   C     0.17339   0.38174   0.17163   0.05000  Uiso   1.00
C375   C     0.19711   0.38298   0.19386   0.05000  Uiso   1.00
C376   C     0.20948   0.36286   0.22730   0.05000  Uiso   1.00
C377   C     0.23461   0.36275   0.25185   0.05000  Uiso   1.00
C378   C     0.19767   0.34239   0.23716   0.05000  Uiso   1.00
C379   C     0.17374   0.34163   0.21423   0.05000  Uiso   1.00
C380   C     0.16195   0.36178   0.18144   0.05000  Uiso   1.00
C381   C     0.12255   0.34501   0.18962   0.05000  Uiso   1.00
C382   C     0.10549   0.32867   0.18960   0.05000  Uiso   1.00
C383   C     0.06439   0.30437   0.18220   0.05000  Uiso   1.00
C384   C     0.04740   0.28778   0.18213   0.05000  Uiso   1.00
C385   C     0.93801   0.10417   0.21172   0.05000  Uiso   1.00
C386   C     0.93701   0.07955   0.23390   0.05000  Uiso   1.00
C387   C     0.43224   0.34671   0.46475   0.05000  Uiso   1.00
C388   C     0.42726   0.31788   0.47593   0.05000  Uiso   1.00
C389   C     0.44406   0.30171   0.51018   0.05000  Uiso   1.00
C390   C     0.46630   0.31397   0.53417   0.05000  Uiso   1.00
C391   C     0.47134   0.34277   0.52303   0.05000  Uiso   1.00
C392   C     0.45451   0.35891   0.48877   0.05000  Uiso   1.00
C393   C     0.48411   0.29680   0.57057   0.05000  Uiso   1.00
C394   C     0.50637   0.30905   0.59474   0.05000  Uiso   1.00
C395   C     0.52312   0.29279   0.62900   0.05000  Uiso   1.00
C396   C     0.51800   0.26390   0.63989   0.05000  Uiso   1.00
C397   C     0.49574   0.25169   0.61572   0.05000  Uiso   1.00
C398   C     0.47901   0.26794   0.58151   0.05000  Uiso   1.00
C399   C     0.53577   0.24637   0.67601   0.05000  Uiso   1.00
C400   C     0.53062   0.21719   0.68627   0.05000  Uiso   1.00
C401   C     0.54736   0.20038   0.71994   0.05000  Uiso   1.00
C402   C     0.56968   0.21234   0.74421   0.05000  Uiso   1.00
C403   C     0.58751   0.19414   0.77959   0.05000  Uiso   1.00
C404   C     0.60989   0.20587   0.80390   0.05000  Uiso   1.00
C405   C     0.62670   0.18841   0.83689   0.05000  Uiso   1.00
C406   C     0.62158   0.15881   0.84642   0.05000  Uiso   1.00
C407   C     0.63614   0.11664   0.89953   0.05000  Uiso   1.00
C408   C     0.65680   0.10474   0.93074   0.05000  Uiso   1.00
C409   C     0.65836   0.08036   0.95530   0.05000  Uiso   1.00
C410   C     0.63787   0.06772   0.94746   0.05000  Uiso   1.00
C411   C     0.61672   0.07997   0.91555   0.05000  Uiso   1.00
C412   C     0.61567   0.10457   0.89135   0.05000  Uiso   1.00
C413   C     0.63823   0.04221   0.97253   0.05000  Uiso   1.00
C414   C     0.67334   0.12176   0.93115   0.05000  Uiso   1.00
C415   C     0.69706   0.11978   0.95583   0.05000  Uiso   1.00
C416   C     0.70963   0.14084   0.94846   0.05000  Uiso   1.00
C417   C     0.73475   0.14013   0.97341   0.05000  Uiso   1.00
C418   C     0.69804   0.16300   0.91687   0.05000  Uiso   1.00
C419   C     0.67415   0.16442   0.89245   0.05000  Uiso   1.00
C420   C     0.66204   0.14342   0.90031   0.05000  Uiso   1.00
C421   C     0.59918   0.14719   0.82213   0.05000  Uiso   1.00
C422   C     0.58236   0.16460   0.78915   0.05000  Uiso   1.00
C423   C     0.57483   0.24161   0.73407   0.05000  Uiso   1.00
C424   C     0.55807   0.25843   0.70036   0.05000  Uiso   1.00
C425   C     0.37972   0.34041   0.41807   0.05000  Uiso   1.00
C426   C     0.35581   0.34114   0.39341   0.05000  Uiso   1.00
C427   C     0.77753   0.31047   0.15630   0.05000  Uiso   1.00
C428   C     0.78238   0.32749   0.18956   0.05000  Uiso   1.00
C429   C     0.78340   0.36111   0.19062   0.05000  Uiso   1.00
C430   C     0.77967   0.37856   0.15841   0.05000  Uiso   1.00
C431   C     0.77470   0.36164   0.12510   0.05000  Uiso   1.00
C432   C     0.77363   0.32809   0.12410   0.05000  Uiso   1.00
C433   C     0.78087   0.41418   0.15942   0.05000  Uiso   1.00
C434   C     0.78274   0.43141   0.19026   0.05000  Uiso   1.00
C435   C     0.78343   0.46500   0.19079   0.05000  Uiso   1.00
C436   C     0.78228   0.48216   0.16053   0.05000  Uiso   1.00
C437   C     0.78063   0.46492   0.12987   0.05000  Uiso   1.00
C438   C     0.77994   0.43132   0.12933   0.05000  Uiso   1.00
C439   C     0.77691   0.26438   0.09673   0.05000  Uiso   1.00
C440   C     0.77685   0.23976   0.07352   0.05000  Uiso   1.00
C441   C     0.77788   0.05828   0.42088   0.05000  Uiso   1.00
C442   C     0.77763   0.08117   0.39564   0.05000  Uiso   1.00
H443   H     0.77699   0.03096   0.32776   0.00000  Uiso   1.00
H444   H     0.77967   0.94711   0.57513   0.00000  Uiso   1.00
H445   H     0.78017   0.94718   0.63678   0.00000  Uiso   1.00
H446   H     0.78039   0.05299   0.68037   0.00000  Uiso   1.00
H447   H     0.78035   0.05283   0.74130   0.00000  Uiso   1.00
H448   H     0.77699   0.03235   0.98309   0.00000  Uiso   1.00
H449   H     0.77850   0.10819   0.90887   0.00000  Uiso   1.00
H450   H     0.77918   0.06554   0.86531   0.00000  Uiso   1.00
H451   H     0.77613   0.17239   0.12264   0.00000  Uiso   1.00
H452   H     0.77614   0.17206   0.18371   0.00000  Uiso   1.00
H453   H     0.77658   0.24454   0.26293   0.00000  Uiso   1.00
H454   H     0.77678   0.28961   0.22137   0.00000  Uiso   1.00
H455   H     0.34701   0.39858   0.32492   0.00000  Uiso   1.00
H456   H     0.37751   0.42931   0.32398   0.00000  Uiso   1.00
H457   H     0.45335   0.43166   0.39738   0.00000  Uiso   1.00
H458   H     0.45521   0.38897   0.44324   0.00000  Uiso   1.00
H459   H     0.87827   0.07095   0.18376   0.00000  Uiso   1.00
H460   H     0.84786   0.10236   0.12330   0.00000  Uiso   1.00
H461   H     0.84581   0.18056   0.04820   0.00000  Uiso   1.00
H462   H     0.88944   0.18238   0.09124   0.00000  Uiso   1.00
H463   H     0.91633   0.20536   0.15031   0.00000  Uiso   1.00
H464   H     0.94710   0.23633   0.15141   0.00000  Uiso   1.00
H465   H     0.98103   0.14531   0.16023   0.00000  Uiso   1.00
H466   H     0.95090   0.11452   0.16073   0.00000  Uiso   1.00
H467   H     0.97928   0.25488   0.18022   0.00000  Uiso   1.00
H468   H     0.01000   0.28522   0.18065   0.00000  Uiso   1.00
H469   H     0.02147   0.20087   0.13012   0.00000  Uiso   1.00
H470   H     0.99152   0.17015   0.13108   0.00000  Uiso   1.00
H471   H     0.03084   0.23437   0.10624   0.00000  Uiso   1.00
H472   H     0.06112   0.26508   0.10573   0.00000  Uiso   1.00
H473   H     0.07205   0.30435   0.09219   0.00000  Uiso   1.00
H474   H     0.10256   0.33475   0.09208   0.00000  Uiso   1.00
H475   H     0.17590   0.42950   0.12397   0.00000  Uiso   1.00
H476   H     0.10019   0.43099   0.04522   0.00000  Uiso   1.00
H477   H     0.09882   0.38821   0.08822   0.00000  Uiso   1.00
H478   H     0.20589   0.39985   0.18482   0.00000  Uiso   1.00
H479   H     0.20759   0.32612   0.26414   0.00000  Uiso   1.00
H480   H     0.16460   0.32490   0.22268   0.00000  Uiso   1.00
H481   H     0.13726   0.35652   0.21800   0.00000  Uiso   1.00
H482   H     0.10638   0.32729   0.21792   0.00000  Uiso   1.00
H483   H     0.07418   0.32446   0.20453   0.00000  Uiso   1.00
H484   H     0.04341   0.29475   0.20415   0.00000  Uiso   1.00
H485   H     0.95487   0.11411   0.21913   0.00000  Uiso   1.00
H486   H     0.95363   0.06917   0.26013   0.00000  Uiso   1.00
H487   H     0.40933   0.30738   0.45699   0.00000  Uiso   1.00
H488   H     0.43976   0.27830   0.51888   0.00000  Uiso   1.00
H489   H     0.48929   0.35320   0.54198   0.00000  Uiso   1.00
H490   H     0.45906   0.38228   0.48042   0.00000  Uiso   1.00
H491   H     0.51093   0.33247   0.58650   0.00000  Uiso   1.00
H492   H     0.54113   0.30297   0.64838   0.00000  Uiso   1.00
H493   H     0.49116   0.22828   0.62394   0.00000  Uiso   1.00
H494   H     0.46106   0.25753   0.56240   0.00000  Uiso   1.00
H495   H     0.51262   0.20696   0.66705   0.00000  Uiso   1.00
H496   H     0.54295   0.17670   0.72794   0.00000  Uiso   1.00
H497   H     0.61450   0.22984   0.79683   0.00000  Uiso   1.00
H498   H     0.64482   0.19817   0.85643   0.00000  Uiso   1.00
H499   H     0.67579   0.07129   0.98070   0.00000  Uiso   1.00
H500   H     0.60012   0.06985   0.90910   0.00000  Uiso   1.00
H501   H     0.59874   0.11470   0.86563   0.00000  Uiso   1.00
H502   H     0.70565   0.10157   0.98095   0.00000  Uiso   1.00
H503   H     0.70813   0.18014   0.91087   0.00000  Uiso   1.00
H504   H     0.66519   0.18237   0.86706   0.00000  Uiso   1.00
H505   H     0.59451   0.12327   0.82920   0.00000  Uiso   1.00
H506   H     0.56430   0.15458   0.76992   0.00000  Uiso   1.00
H507   H     0.59282   0.25188   0.75339   0.00000  Uiso   1.00
H508   H     0.56265   0.28214   0.69272   0.00000  Uiso   1.00
H509   H     0.38934   0.32400   0.44496   0.00000  Uiso   1.00
H510   H     0.34588   0.32478   0.40055   0.00000  Uiso   1.00
H511   H     0.78555   0.31391   0.21618   0.00000  Uiso   1.00
H512   H     0.78729   0.37457   0.21781   0.00000  Uiso   1.00
H513   H     0.77148   0.37527   0.09847   0.00000  Uiso   1.00
H514   H     0.76951   0.31502   0.09654   0.00000  Uiso   1.00
H515   H     0.78371   0.41800   0.21518   0.00000  Uiso   1.00
H516   H     0.78494   0.47877   0.21598   0.00000  Uiso   1.00
H517   H     0.77984   0.47833   0.10512   0.00000  Uiso   1.00
H518   H     0.77861   0.41782   0.10414   0.00000  Uiso   1.00
H519   H     0.77722   0.29085   0.08987   0.00000  Uiso   1.00
H520   H     0.77705   0.24654   0.04707   0.00000  Uiso   1.00
H521   H     0.77814   0.06543   0.44769   0.00000  Uiso   1.00
H522   H     0.77768   0.10779   0.40229   0.00000  Uiso   1.00
Cu523  Cu    0.10725  -0.00000   0.73207   0.05000  Uiso   1.00
Cu524  Cu    0.06209  -0.00000   0.68698   0.05000  Uiso   1.00
N525   N     0.22199  -0.00000   0.56776   0.05000  Uiso   1.00
N526   N     0.22116  -0.00000   0.11909   0.05000  Uiso   1.00
C527   C     0.22158  -0.00000   0.53275   0.05000  Uiso   1.00
C528   C     0.24200  -0.00000   0.53557   0.05000  Uiso   1.00
C529   C     0.24160  -0.00000   0.50139   0.05000  Uiso   1.00
C530   C     0.22077  -0.00000   0.46414   0.05000  Uiso   1.00
C531   C     0.20034  -0.00000   0.46136   0.05000  Uiso   1.00
C532   C     0.20074  -0.00000   0.49553   0.05000  Uiso   1.00
C533   C     0.22036  -0.00000   0.42829   0.05000  Uiso   1.00
C534   C     0.21982  -0.00000   0.35963   0.05000  Uiso   1.00
C535   C     0.21965  -0.00000   0.32356   0.05000  Uiso   1.00
C536   C     0.21964  -0.00000   0.25542   0.05000  Uiso   1.00
C537   C     0.21996  -0.00000   0.22030   0.05000  Uiso   1.00
C538   C     0.19951  -0.00000   0.18249   0.05000  Uiso   1.00
C539   C     0.19989  -0.00000   0.14908   0.05000  Uiso   1.00
C540   C     0.22072  -0.00000   0.15325   0.05000  Uiso   1.00
C541   C     0.24113  -0.00000   0.19103   0.05000  Uiso   1.00
C542   C     0.24077  -0.00000   0.22442   0.05000  Uiso   1.00
Cu543  Cu    0.89275  -0.00000   0.26793   0.05000  Uiso   1.00
Cu544  Cu    0.93791  -0.00000   0.31302   0.05000  Uiso   1.00
N545   N     0.77801  -0.00000   0.43224   0.05000  Uiso   1.00
N546   N     0.77884  -0.00000   0.88091   0.05000  Uiso   1.00
C547   C     0.77842  -0.00000   0.46725   0.05000  Uiso   1.00
C548   C     0.75800  -0.00000   0.46443   0.05000  Uiso   1.00
C549   C     0.75840  -0.00000   0.49861   0.05000  Uiso   1.00
C550   C     0.77923  -0.00000   0.53586   0.05000  Uiso   1.00
C551   C     0.79966  -0.00000   0.53864   0.05000  Uiso   1.00
C552   C     0.79926  -0.00000   0.50447   0.05000  Uiso   1.00
C553   C     0.77964  -0.00000   0.57171   0.05000  Uiso   1.00
C554   C     0.78018  -0.00000   0.64037   0.05000  Uiso   1.00
C555   C     0.78035  -0.00000   0.67644   0.05000  Uiso   1.00
C556   C     0.78036  -0.00000   0.74458   0.05000  Uiso   1.00
C557   C     0.78004  -0.00000   0.77970   0.05000  Uiso   1.00
C558   C     0.80049  -0.00000   0.81751   0.05000  Uiso   1.00
C559   C     0.80011  -0.00000   0.85092   0.05000  Uiso   1.00
C560   C     0.77928  -0.00000   0.84675   0.05000  Uiso   1.00
C561   C     0.75887  -0.00000   0.80897   0.05000  Uiso   1.00
C562   C     0.75923  -0.00000   0.77558   0.05000  Uiso   1.00
H563   H     0.25902  -0.00000   0.56576   0.00000  Uiso   1.00
H564   H     0.25826  -0.00000   0.50380   0.00000  Uiso   1.00
H565   H     0.18331  -0.00000   0.43119   0.00000  Uiso   1.00
H566   H     0.18405  -0.00000   0.49301   0.00000  Uiso   1.00
H567   H     0.18250  -0.00000   0.17886   0.00000  Uiso   1.00
H568   H     0.18322  -0.00000   0.11838   0.00000  Uiso   1.00
H569   H     0.25815  -0.00000   0.19470   0.00000  Uiso   1.00
H570   H     0.25749  -0.00000   0.25506   0.00000  Uiso   1.00
H571   H     0.74098  -0.00000   0.43424   0.00000  Uiso   1.00
H572   H     0.74174  -0.00000   0.49620   0.00000  Uiso   1.00
H573   H     0.81669  -0.00000   0.56881   0.00000  Uiso   1.00
H574   H     0.81595  -0.00000   0.50699   0.00000  Uiso   1.00
H575   H     0.81750  -0.00000   0.82114   0.00000  Uiso   1.00
H576   H     0.81678  -0.00000   0.88162   0.00000  Uiso   1.00
H577   H     0.74185  -0.00000   0.80530   0.00000  Uiso   1.00
H578   H     0.74251  -0.00000   0.74494   0.00000  Uiso   1.00
Cu579  Cu    0.83907   0.50000   0.96292   0.05000  Uiso   1.00
Cu580  Cu    0.88422   0.50000   0.00775   0.05000  Uiso   1.00
Cu581  Cu    0.16093   0.50000   0.03708   0.05000  Uiso   1.00
Cu582  Cu    0.11578   0.50000   0.99225   0.05000  Uiso   1.00
loop_
_geom_bond_atom_site_label_1
_geom_bond_atom_site_label_2
_geom_bond_distance
_geom_bond_site_symmetry_2
_ccdc_geom_bond_type
Cu1    O7      1.859   .     S
Cu1    O8      1.858   .     S
Cu1    O19     1.860   .     S
Cu1    O28     1.860   .     S
Cu1    Cu2     2.649   1_556 S
Cu2    O9      1.855   1_554 S
Cu2    O10     1.859   .     S
Cu2    O20     1.850   1_554 S
Cu2    O27     1.850   .     S
Cu2    Cu1     2.649   1_554 S
Cu3    O5      1.866   .     S
Cu3    O11     1.866   .     S
Cu3    O12     1.858   4_455 S
Cu3    O23     1.858   4_455 S
Cu3    Cu4     2.648   .     S
Cu4    O6      1.850   .     S
Cu4    O14     1.850   .     S
Cu4    O13     1.855   4_455 S
Cu4    O24     1.855   4_455 S
O5     C34     1.272   .     A
O6     C34     1.270   .     A
O7     C49     1.271   1_556 A
O8     C50     1.271   .     A
O9     Cu2     1.855   1_556 S
O9     C50     1.271   .     A
O10    C49     1.271   .     A
O11    C61     1.272   .     A
O12    C62     1.271   .     A
O12    Cu3     1.858   4     S
O13    C62     1.271   .     A
O13    Cu4     1.855   4     S
O14    C61     1.270   .     A
O15    C73     1.271   .     A
O15    Cu523   1.860   3     S
O16    Cu523   1.860   .     S
O16    C74     1.271   .     A
O17    Cu524   1.851   .     S
O17    C74     1.270   .     A
O18    C73     1.270   .     A
O18    Cu524   1.851   3     S
O19    C85     1.271   .     A
O20    Cu2     1.850   1_556 S
O20    C85     1.270   .     A
O21    Cu579   1.862   .     S
O21    C112    1.271   .     A
O22    Cu580   1.851   1_556 S
O22    C112    1.270   .     A
O23    C116    1.270   .     A
O23    Cu3     1.858   4     S
O24    C116    1.271   .     A
O24    Cu4     1.855   4     S
O25    C152    1.271   1_556 A
O25    Cu579   1.861   3_445 S
O26    C152    1.270   .     A
O26    Cu580   1.850   3_445 S
O27    C156    1.270   .     A
O28    C156    1.271   1_556 A
N29    C54     1.362   .     A
N29    C55     1.362   .     A
N29    C166    1.450   .     S
N30    C66     1.365   .     A
N30    C67     1.359   .     A
N30    C126    1.448   .     S
N31    C78     1.355   .     A
N31    C79     1.356   .     A
N31    C86     1.438   .     S
N32    C105    1.438   .     S
N32    C106    1.356   .     A
N32    C119    1.356   .     A
N33    C145    1.448   .     S
N33    C146    1.361   .     A
N33    C159    1.361   .     A
C34    C35     1.476   .     S
C35    C36     1.411   .     A
C35    C181    1.418   .     A
C36    C37     1.393   .     A
C36    H182    1.140   .     S
C37    C38     1.382   .     A
C37    C37     1.376   2     S
C38    N525    1.355   .     A
C38    C180    1.394   .     A
C39    C533    1.400   1_565 A
C39    C40     1.400   .     A
C39    H183    1.140   .     S
C40    C534    1.406   1_565 A
C40    H184    1.140   .     S
C41    C535    1.406   .     A
C41    C42     1.400   .     A
C41    H185    1.140   .     S
C42    C536    1.400   .     A
C42    H186    1.140   .     S
C43    N526    1.359   .     A
C43    C44     1.451   .     A
C43    C48     1.392   .     A
C44    C45     1.387   .     A
C44    C44     1.446   2     A
C45    C46     1.411   .     A
C45    H187    1.140   .     S
C46    C47     1.421   .     A
C46    C49     1.478   .     S
C47    C48     1.409   .     A
C47    H188    1.140   .     S
C48    H189    1.140   .     S
C49    O7      1.271   1_554 A
C50    C51     1.475   .     S
C51    C52     1.412   .     A
C51    C179    1.415   .     A
C52    C53     1.395   .     A
C52    H190    1.140   .     S
C53    C54     1.383   .     A
C53    C56     1.375   .     A
C54    C178    1.396   .     A
C55    C56     1.383   .     A
C55    C60     1.396   .     A
C56    C57     1.397   .     S
C57    C58     1.413   .     A
C57    H191    1.140   .     S
C58    C59     1.415   .     A
C58    C61     1.476   .     S
C59    C60     1.403   .     A
C59    H192    1.140   .     S
C60    H193    1.140   .     S
C62    C63     1.475   .     S
C63    C64     1.411   .     A
C63    C165    1.414   .     A
C64    C65     1.394   .     A
C64    H194    1.140   .     S
C65    C66     1.389   .     A
C65    C68     1.372   .     A
C66    C164    1.397   .     A
C67    C68     1.445   .     A
C67    C72     1.390   .     A
C68    C69     1.390   .     A
C69    C70     1.412   .     A
C69    H195    1.140   .     S
C70    C71     1.419   .     A
C70    C73     1.475   .     S
C71    C72     1.405   .     A
C71    H196    1.140   .     S
C72    H197    1.140   .     S
C74    C75     1.474   .     S
C75    C76     1.411   .     A
C75    C125    1.417   .     A
C76    C77     1.394   .     A
C76    H198    1.140   .     S
C77    C78     1.381   .     A
C77    C80     1.376   .     A
C78    C124    1.394   .     A
C79    C80     1.382   .     A
C79    C84     1.394   .     A
C80    C81     1.394   .     A
C81    C82     1.411   .     A
C81    H199    1.140   .     S
C82    C83     1.417   .     A
C82    C85     1.474   .     S
C83    C84     1.405   .     A
C83    H200    1.140   .     S
C84    H201    1.140   .     S
C86    C87     1.401   .     A
C86    C91     1.401   .     A
C87    C88     1.398   .     A
C87    H202    1.140   .     S
C88    C89     1.404   .     A
C88    H203    1.140   .     S
C89    C90     1.403   .     A
C89    C92     1.479   .     S
C90    C91     1.397   .     A
C90    H204    1.140   .     S
C91    H205    1.140   .     S
C92    C93     1.403   .     A
C92    C97     1.403   .     A
C93    C94     1.398   1_455 A
C93    H206    1.140   .     S
C94    C93     1.398   1_655 A
C94    C95     1.404   .     A
C94    H207    1.140   .     S
C95    C96     1.403   .     A
C95    C98     1.479   .     S
C96    C97     1.397   1_655 A
C96    H208    1.140   .     S
C97    C96     1.397   1_455 A
C97    H209    1.140   .     S
C98    C99     1.403   .     A
C98    C123    1.403   .     A
C99    C100    1.398   .     A
C99    H210    1.140   .     S
C100   C101    1.403   .     A
C100   H211    1.140   .     S
C101   C102    1.480   .     S
C101   C122    1.403   .     A
C102   C103    1.403   .     A
C102   C121    1.404   .     A
C103   C104    1.398   .     A
C103   H212    1.140   .     S
C104   C105    1.401   .     A
C104   H213    1.140   .     S
C105   C120    1.401   .     A
C106   C107    1.381   .     A
C106   C111    1.394   .     A
C107   C108    1.395   .     A
C107   C113    1.377   .     A
C108   C109    1.412   .     A
C108   H214    1.140   .     S
C109   C110    1.416   .     A
C109   C112    1.475   .     S
C110   C111    1.404   .     A
C110   H215    1.140   .     S
C111   H216    1.140   .     S
C113   C114    1.394   .     A
C113   C119    1.382   .     A
C114   C115    1.412   .     A
C114   H217    1.140   .     S
C115   C116    1.475   .     S
C115   C117    1.416   .     A
C117   C118    1.405   .     A
C117   H218    1.140   .     S
C118   C119    1.394   .     A
C118   H219    1.140   .     S
C120   C121    1.399   .     A
C120   H220    1.140   .     S
C121   H221    1.140   .     S
C122   C123    1.398   .     A
C122   H222    1.140   .     S
C123   H223    1.140   .     S
C124   C125    1.405   .     A
C124   H224    1.140   .     S
C125   H225    1.140   .     S
C126   C127    1.403   .     A
C126   C131    1.404   .     A
C127   C128    1.397   .     A
C127   H226    1.140   .     S
C128   C129    1.403   .     A
C128   H227    1.140   .     S
C129   C130    1.403   .     A
C129   C132    1.484   .     S
C130   C131    1.398   .     A
C130   H228    1.140   .     S
C131   H229    1.140   .     S
C132   C133    1.404   .     A
C132   C137    1.403   .     A
C133   C134    1.398   .     A
C133   H230    1.140   .     S
C134   C135    1.404   .     A
C134   H231    1.140   .     S
C135   C136    1.404   .     A
C135   C138    1.484   .     S
C136   C137    1.397   .     A
C136   H232    1.140   .     S
C137   H233    1.140   .     S
C138   C139    1.403   .     A
C138   C163    1.404   .     A
C139   C140    1.397   .     A
C139   H234    1.140   .     S
C140   C141    1.403   .     A
C140   H235    1.140   .     S
C141   C142    1.484   .     S
C141   C162    1.404   .     A
C142   C143    1.403   .     A
C142   C161    1.403   .     A
C143   C144    1.398   .     A
C143   H236    1.140   .     S
C144   C145    1.404   .     A
C144   H237    1.140   .     S
C145   C160    1.403   .     A
C146   C147    1.382   .     A
C146   C151    1.396   .     A
C147   C148    1.395   .     A
C147   C153    1.373   .     A
C148   C149    1.411   .     A
C148   H238    1.140   .     S
C149   C150    1.415   .     A
C149   C152    1.475   .     S
C150   C151    1.404   .     A
C150   H239    1.140   .     S
C151   H240    1.140   .     S
C152   O25     1.271   1_554 A
C153   C154    1.395   .     A
C153   C159    1.382   .     A
C154   C155    1.410   .     A
C154   H241    1.140   .     S
C155   C156    1.474   .     S
C155   C157    1.415   .     A
C156   O28     1.271   1_554 A
C157   C158    1.403   .     A
C157   H242    1.140   .     S
C158   C159    1.395   .     A
C158   H243    1.140   .     S
C160   C161    1.397   .     A
C160   H244    1.140   .     S
C161   H245    1.140   .     S
C162   C163    1.398   .     A
C162   H246    1.140   .     S
C163   H247    1.140   .     S
C164   C165    1.404   .     A
C164   H248    1.140   .     S
C165   H249    1.140   .     S
C166   C167    1.404   .     A
C166   C171    1.403   .     A
C167   C168    1.399   .     A
C167   H250    1.140   .     S
C168   C169    1.403   .     A
C168   H251    1.140   .     S
C169   C170    1.401   .     A
C169   C172    1.482   .     S
C170   C171    1.396   .     A
C170   H252    1.140   .     S
C171   H253    1.140   .     S
C172   C173    1.403   .     A
C172   C177    1.404   .     A
C173   C174    1.397   .     A
C173   H254    1.140   .     S
C174   C175    1.404   .     A
C174   H255    1.140   .     S
C175   C176    1.404   .     A
C175   C175    1.483   2_565 S
C176   C177    1.397   .     A
C176   H256    1.140   .     S
C177   H257    1.140   .     S
C178   C179    1.403   .     A
C178   H258    1.140   .     S
C179   H259    1.140   .     S
C180   C181    1.407   .     A
C180   H260    1.140   .     S
C181   H261    1.140   .     S
Cu262  O268    1.859   .     S
Cu262  O269    1.858   .     S
Cu262  O280    1.860   .     S
Cu262  O289    1.860   .     S
Cu262  Cu263   2.649   1_554 S
Cu263  O270    1.855   1_556 S
Cu263  O271    1.859   .     S
Cu263  O281    1.850   1_556 S
Cu263  O288    1.850   .     S
Cu263  Cu262   2.649   1_556 S
Cu264  O266    1.866   .     S
Cu264  O272    1.866   .     S
Cu264  O273    1.858   4     S
Cu264  O284    1.858   4     S
Cu264  Cu265   2.648   .     S
Cu265  O267    1.850   .     S
Cu265  O275    1.850   .     S
Cu265  O274    1.855   4     S
Cu265  O285    1.855   4     S
O266   C295    1.272   .     A
O267   C295    1.270   .     A
O268   C310    1.271   1_554 A
O269   C311    1.271   .     A
O270   Cu263   1.855   1_554 S
O270   C311    1.271   .     A
O271   C310    1.271   .     A
O272   C322    1.272   .     A
O273   C323    1.271   .     A
O273   Cu264   1.858   4_455 S
O274   C323    1.271   .     A
O274   Cu265   1.855   4_455 S
O275   C322    1.270   .     A
O276   C334    1.271   .     A
O276   Cu543   1.860   3_455 S
O277   Cu543   1.860   .     S
O277   C335    1.271   .     A
O278   Cu544   1.851   .     S
O278   C335    1.270   .     A
O279   C334    1.270   .     A
O279   Cu544   1.851   3_455 S
O280   C346    1.271   .     A
O281   Cu263   1.850   1_554 S
O281   C346    1.270   .     A
O282   Cu581   1.862   .     S
O282   C373    1.271   .     A
O283   Cu582   1.851   1_554 S
O283   C373    1.270   .     A
O284   C377    1.270   .     A
O284   Cu264   1.858   4_455 S
O285   C377    1.271   .     A
O285   Cu265   1.855   4_455 S
O286   C413    1.271   1_554 A
O286   Cu581   1.861   3_545 S
O287   C413    1.270   .     A
O287   Cu582   1.850   3_545 S
O288   C417    1.270   .     A
O289   C417    1.271   1_554 A
N290   C315    1.362   .     A
N290   C316    1.362   .     A
N290   C427    1.450   .     S
N291   C327    1.365   .     A
N291   C328    1.359   .     A
N291   C387    1.448   .     S
N292   C339    1.355   .     A
N292   C340    1.356   .     A
N292   C347    1.438   .     S
N293   C366    1.438   .     S
N293   C367    1.356   .     A
N293   C380    1.356   .     A
N294   C406    1.448   .     S
N294   C407    1.361   .     A
N294   C420    1.361   .     A
C295   C296    1.476   .     S
C296   C297    1.411   .     A
C296   C442    1.418   .     A
C297   C298    1.393   .     A
C297   H443    1.140   .     S
C298   C299    1.382   .     A
C298   C298    1.376   2     S
C299   N545    1.355   .     A
C299   C441    1.394   .     A
C300   C553    1.400   1_565 A
C300   C301    1.400   .     A
C300   H444    1.140   .     S
C301   C554    1.406   1_565 A
C301   H445    1.140   .     S
C302   C555    1.406   .     A
C302   C303    1.400   .     A
C302   H446    1.140   .     S
C303   C556    1.400   .     A
C303   H447    1.140   .     S
C304   N546    1.359   .     A
C304   C305    1.451   .     A
C304   C309    1.392   .     A
C305   C306    1.387   .     A
C305   C305    1.446   2     A
C306   C307    1.411   .     A
C306   H448    1.140   .     S
C307   C308    1.421   .     A
C307   C310    1.478   .     S
C308   C309    1.409   .     A
C308   H449    1.140   .     S
C309   H450    1.140   .     S
C310   O268    1.271   1_556 A
C311   C312    1.475   .     S
C312   C313    1.412   .     A
C312   C440    1.415   .     A
C313   C314    1.395   .     A
C313   H451    1.140   .     S
C314   C315    1.383   .     A
C314   C317    1.375   .     A
C315   C439    1.396   .     A
C316   C317    1.383   .     A
C316   C321    1.396   .     A
C317   C318    1.397   .     S
C318   C319    1.413   .     A
C318   H452    1.140   .     S
C319   C320    1.415   .     A
C319   C322    1.476   .     S
C320   C321    1.403   .     A
C320   H453    1.140   .     S
C321   H454    1.140   .     S
C323   C324    1.475   .     S
C324   C325    1.411   .     A
C324   C426    1.414   .     A
C325   C326    1.394   .     A
C325   H455    1.140   .     S
C326   C327    1.389   .     A
C326   C329    1.372   .     A
C327   C425    1.397   .     A
C328   C329    1.445   .     A
C328   C333    1.390   .     A
C329   C330    1.390   .     A
C330   C331    1.412   .     A
C330   H456    1.140   .     S
C331   C332    1.419   .     A
C331   C334    1.475   .     S
C332   C333    1.405   .     A
C332   H457    1.140   .     S
C333   H458    1.140   .     S
C335   C336    1.474   .     S
C336   C337    1.411   .     A
C336   C386    1.417   .     A
C337   C338    1.394   .     A
C337   H459    1.140   .     S
C338   C339    1.381   .     A
C338   C341    1.376   .     A
C339   C385    1.394   .     A
C340   C341    1.382   .     A
C340   C345    1.394   .     A
C341   C342    1.394   .     A
C342   C343    1.411   .     A
C342   H460    1.140   .     S
C343   C344    1.417   .     A
C343   C346    1.474   .     S
C344   C345    1.405   .     A
C344   H461    1.140   .     S
C345   H462    1.140   .     S
C347   C348    1.401   .     A
C347   C352    1.401   .     A
C348   C349    1.398   .     A
C348   H463    1.140   .     S
C349   C350    1.404   .     A
C349   H464    1.140   .     S
C350   C351    1.403   .     A
C350   C353    1.479   .     S
C351   C352    1.397   .     A
C351   H465    1.140   .     S
C352   H466    1.140   .     S
C353   C354    1.403   .     A
C353   C358    1.403   .     A
C354   C355    1.398   1_655 A
C354   H467    1.140   .     S
C355   C354    1.398   1_455 A
C355   C356    1.404   .     A
C355   H468    1.140   .     S
C356   C357    1.403   .     A
C356   C359    1.479   .     S
C357   C358    1.397   1_455 A
C357   H469    1.140   .     S
C358   C357    1.397   1_655 A
C358   H470    1.140   .     S
C359   C360    1.403   .     A
C359   C384    1.403   .     A
C360   C361    1.398   .     A
C360   H471    1.140   .     S
C361   C362    1.403   .     A
C361   H472    1.140   .     S
C362   C363    1.480   .     S
C362   C383    1.403   .     A
C363   C364    1.403   .     A
C363   C382    1.404   .     A
C364   C365    1.398   .     A
C364   H473    1.140   .     S
C365   C366    1.401   .     A
C365   H474    1.140   .     S
C366   C381    1.401   .     A
C367   C368    1.381   .     A
C367   C372    1.394   .     A
C368   C369    1.395   .     A
C368   C374    1.377   .     A
C369   C370    1.412   .     A
C369   H475    1.140   .     S
C370   C371    1.416   .     A
C370   C373    1.475   .     S
C371   C372    1.404   .     A
C371   H476    1.140   .     S
C372   H477    1.140   .     S
C374   C375    1.394   .     A
C374   C380    1.382   .     A
C375   C376    1.412   .     A
C375   H478    1.140   .     S
C376   C377    1.475   .     S
C376   C378    1.416   .     A
C378   C379    1.405   .     A
C378   H479    1.140   .     S
C379   C380    1.394   .     A
C379   H480    1.140   .     S
C381   C382    1.399   .     A
C381   H481    1.140   .     S
C382   H482    1.140   .     S
C383   C384    1.398   .     A
C383   H483    1.140   .     S
C384   H484    1.140   .     S
C385   C386    1.405   .     A
C385   H485    1.140   .     S
C386   H486    1.140   .     S
C387   C388    1.403   .     A
C387   C392    1.404   .     A
C388   C389    1.397   .     A
C388   H487    1.140   .     S
C389   C390    1.403   .     A
C389   H488    1.140   .     S
C390   C391    1.403   .     A
C390   C393    1.484   .     S
C391   C392    1.398   .     A
C391   H489    1.140   .     S
C392   H490    1.140   .     S
C393   C394    1.404   .     A
C393   C398    1.403   .     A
C394   C395    1.398   .     A
C394   H491    1.140   .     S
C395   C396    1.404   .     A
C395   H492    1.140   .     S
C396   C397    1.404   .     A
C396   C399    1.484   .     S
C397   C398    1.397   .     A
C397   H493    1.140   .     S
C398   H494    1.140   .     S
C399   C400    1.403   .     A
C399   C424    1.404   .     A
C400   C401    1.397   .     A
C400   H495    1.140   .     S
C401   C402    1.403   .     A
C401   H496    1.140   .     S
C402   C403    1.484   .     S
C402   C423    1.404   .     A
C403   C404    1.403   .     A
C403   C422    1.403   .     A
C404   C405    1.398   .     A
C404   H497    1.140   .     S
C405   C406    1.404   .     A
C405   H498    1.140   .     S
C406   C421    1.403   .     A
C407   C408    1.382   .     A
C407   C412    1.396   .     A
C408   C409    1.395   .     A
C408   C414    1.373   .     A
C409   C410    1.411   .     A
C409   H499    1.140   .     S
C410   C411    1.415   .     A
C410   C413    1.475   .     S
C411   C412    1.404   .     A
C411   H500    1.140   .     S
C412   H501    1.140   .     S
C413   O286    1.271   1_556 A
C414   C415    1.395   .     A
C414   C420    1.382   .     A
C415   C416    1.410   .     A
C415   H502    1.140   .     S
C416   C417    1.474   .     S
C416   C418    1.415   .     A
C417   O289    1.271   1_556 A
C418   C419    1.403   .     A
C418   H503    1.140   .     S
C419   C420    1.395   .     A
C419   H504    1.140   .     S
C421   C422    1.397   .     A
C421   H505    1.140   .     S
C422   H506    1.140   .     S
C423   C424    1.398   .     A
C423   H507    1.140   .     S
C424   H508    1.140   .     S
C425   C426    1.404   .     A
C425   H509    1.140   .     S
C426   H510    1.140   .     S
C427   C428    1.404   .     A
C427   C432    1.403   .     A
C428   C429    1.399   .     A
C428   H511    1.140   .     S
C429   C430    1.403   .     A
C429   H512    1.140   .     S
C430   C431    1.401   .     A
C430   C433    1.482   .     S
C431   C432    1.396   .     A
C431   H513    1.140   .     S
C432   H514    1.140   .     S
C433   C434    1.403   .     A
C433   C438    1.404   .     A
C434   C435    1.397   .     A
C434   H515    1.140   .     S
C435   C436    1.404   .     A
C435   H516    1.140   .     S
C436   C437    1.404   .     A
C436   C436    1.483   2_565 S
C437   C438    1.397   .     A
C437   H517    1.140   .     S
C438   H518    1.140   .     S
C439   C440    1.403   .     A
C439   H519    1.140   .     S
C440   H520    1.140   .     S
C441   C442    1.407   .     A
C441   H521    1.140   .     S
C442   H522    1.140   .     S
Cu523  O16     1.860   2     S
Cu523  O15     1.860   3_445 S
Cu523  O15     1.860   4_455 S
Cu523  Cu524   2.650   .     S
Cu524  O17     1.851   2     S
Cu524  O18     1.851   3_445 S
Cu524  O18     1.851   4_455 S
N525   C38     1.355   2     A
N525   C527    1.434   .     S
N526   C540    1.434   .     S
N526   C43     1.359   2     A
C527   C528    1.400   .     A
C527   C532    1.401   .     A
C528   C529    1.400   .     A
C528   H563    1.140   .     S
C529   C530    1.401   .     A
C529   H564    1.140   .     S
C530   C531    1.402   .     A
C530   C533    1.469   .     S
C531   C532    1.400   .     A
C531   H565    1.140   .     S
C532   H566    1.140   .     S
C533   C39     1.400   1_545 A
C533   C39     1.400   2_565 A
C534   C40     1.406   1_545 A
C534   C40     1.406   2_565 A
C534   C535    1.488   .     S
C535   C41     1.406   2     A
C536   C42     1.400   2     A
C536   C537    1.469   .     S
C537   C538    1.402   .     A
C537   C542    1.401   .     A
C538   C539    1.401   .     A
C538   H567    1.140   .     S
C539   C540    1.401   .     A
C539   H568    1.140   .     S
C540   C541    1.400   .     A
C541   C542    1.399   .     A
C541   H569    1.140   .     S
C542   H570    1.140   .     S
Cu543  O277    1.860   2     S
Cu543  O276    1.860   3_545 S
Cu543  O276    1.860   4     S
Cu543  Cu544   2.650   .     S
Cu544  O278    1.851   2     S
Cu544  O279    1.851   3_545 S
Cu544  O279    1.851   4     S
N545   C299    1.355   2     A
N545   C547    1.434   .     S
N546   C560    1.434   .     S
N546   C304    1.359   2     A
C547   C548    1.400   .     A
C547   C552    1.401   .     A
C548   C549    1.400   .     A
C548   H571    1.140   .     S
C549   C550    1.401   .     A
C549   H572    1.140   .     S
C550   C551    1.402   .     A
C550   C553    1.469   .     S
C551   C552    1.400   .     A
C551   H573    1.140   .     S
C552   H574    1.140   .     S
C553   C300    1.400   1_545 A
C553   C300    1.400   2_565 A
C554   C301    1.406   1_545 A
C554   C301    1.406   2_565 A
C554   C555    1.488   .     S
C555   C302    1.406   2     A
C556   C303    1.400   2     A
C556   C557    1.469   .     S
C557   C558    1.402   .     A
C557   C562    1.401   .     A
C558   C559    1.401   .     A
C558   H575    1.140   .     S
C559   C560    1.401   .     A
C559   H576    1.140   .     S
C560   C561    1.400   .     A
C561   C562    1.399   .     A
C561   H577    1.140   .     S
C562   H578    1.140   .     S
Cu579  O21     1.862   2_565 S
Cu579  O25     1.861   3     S
Cu579  O25     1.861   4     S
Cu579  Cu580   2.649   1_556 S
Cu580  O22     1.851   1_554 S
Cu580  O22     1.851   2_564 S
Cu580  O26     1.850   3     S
Cu580  O26     1.850   4     S
Cu580  Cu579   2.649   1_554 S
Cu581  O282    1.862   2_565 S
Cu581  O286    1.861   3_455 S
Cu581  O286    1.861   4_455 S
Cu581  Cu582   2.649   1_554 S
Cu582  O283    1.851   1_556 S
Cu582  O283    1.851   2_566 S
Cu582  O287    1.850   3_455 S
Cu582  O287    1.850   4_455 S
Cu582  Cu581   2.649   1_556 S
