# CIF file generated from LTA0.in
data_generated_cif
_audit_creation_method 'Generated by cp2k_to_cif'
_cell_length_a 11.919000
_cell_length_b 11.919000
_cell_length_c 11.919000
_cell_angle_alpha 90.000000
_cell_angle_beta 90.000000
_cell_angle_gamma 90.000000
loop_
_symmetry_equiv_pos_as_xyz
'x, y, z'
loop_
_atom_site_label
_atom_site_type_symbol
_atom_site_fract_x
_atom_site_fract_y
_atom_site_fract_z
O1 O 1.000000 0.213897 0.500001
O2 O 1.000000 0.786104 0.499998
O3 O 0.500001 0.000001 0.213896
O4 O 0.499999 -0.000001 0.786104
O5 O 0.213896 0.500001 0.000001
O6 O 0.786104 0.499999 -0.000001
O7 O 0.213897 -0.000000 0.499999
O8 O 0.786104 0.000000 0.500001
O9 O 1.000001 0.500002 0.786104
O10 O 0.999999 0.499999 0.213896
O11 O 0.500002 0.213897 -0.000001
O12 O 0.499998 0.786104 0.000001
O13 O 0.111814 0.111816 0.337140
O14 O 0.888189 0.888188 0.662860
O15 O 0.888186 0.888186 0.337140
O16 O 0.111812 0.111811 0.662860
O17 O 0.888178 0.111822 0.662861
O18 O 0.111819 0.888181 0.337139
O19 O 0.111822 0.888179 0.662860
O20 O 0.888181 0.111819 0.337140
O21 O 0.337140 0.111821 0.111818
O22 O 0.662860 0.888181 0.888184
O23 O 0.337139 0.888180 0.888182
O24 O 0.662861 0.111818 0.111816
O25 O 0.662860 0.888184 0.111818
O26 O 0.337140 0.111814 0.888185
O27 O 0.662860 0.111814 0.888181
O28 O 0.337140 0.888189 0.111814
O29 O 0.111815 0.337140 0.111816
O30 O 0.888184 0.662860 0.888183
O31 O 0.888186 0.337139 0.888182
O32 O 0.111814 0.662861 0.111819
O33 O 0.111817 0.662861 0.888184
O34 O 0.888182 0.337139 0.111816
O35 O 0.888181 0.662860 0.111816
O36 O 0.111819 0.337141 0.888184
O37 O -0.000001 0.298668 0.298669
O38 O 0.000000 0.701332 0.701331
O39 O -0.000003 0.701331 0.298668
O40 O 0.000003 0.298668 0.701331
O41 O 0.298669 0.000002 0.298668
O42 O 0.701330 -0.000004 0.701332
O43 O 0.298668 0.000001 0.701331
O44 O 0.701332 0.000001 0.298669
O45 O 0.298669 0.298670 -0.000001
O46 O 0.701331 0.701331 0.000000
O47 O 0.701331 0.298668 -0.000004
O48 O 0.298668 0.701332 0.000004
Si49 Si -0.000001 0.183034 0.368094
Si50 Si 0.000003 0.816966 0.631906
Si51 Si 0.000001 0.816967 0.368092
Si52 Si -0.000002 0.183033 0.631908
Si53 Si 0.368095 0.000004 0.183033
Si54 Si 0.631906 0.999997 0.816967
Si55 Si 0.368092 0.999998 0.816966
Si56 Si 0.631908 0.000002 0.183034
Si57 Si 0.183034 0.368095 0.000001
Si58 Si 0.816966 0.631906 -0.000001
Si59 Si 0.816967 0.368092 -0.000003
Si60 Si 0.183033 0.631909 0.000003
Si61 Si 0.183033 -0.000002 0.631905
Si62 Si 0.816967 0.000001 0.368094
Si63 Si 0.816966 0.000001 0.631909
Si64 Si 0.183034 -0.000000 0.368091
Si65 Si 1.000003 0.368094 0.816966
Si66 Si -0.000003 0.631906 0.183034
Si67 Si -0.000001 0.368092 0.183033
Si68 Si 0.000001 0.631908 0.816967
Si69 Si 0.368095 0.183035 -0.000001
Si70 Si 0.631906 0.816966 0.000002
Si71 Si 0.368091 0.816968 0.000001
Si72 Si 0.631908 0.183032 -0.000003
