data_ZIF8_H_222
_symmetry_cell_setting           triclinic 
_symmetry_space_group_name_H-M   'P 1' 
_symmetry_Int_Tables_number      1 
loop_ 
_symmetry_equiv_pos_site_id 
_symmetry_equiv_pos_as_xyz 
1 x,y,z 
_cell_length_a             33.942036        
_cell_length_b             33.942036        
_cell_length_c             33.942036        
_cell_angle_alpha          90.000000        
_cell_angle_beta           90.000000        
_cell_angle_gamma          90.000000        
loop_  
_atom_site_label   
_atom_site_type_symbol  
_atom_site_fract_x  
_atom_site_fract_y  
_atom_site_fract_z 
 Zn0  Zn     0.375000      0.000000      0.250000 
 Zn1  Zn     0.375000      0.250000     -0.000000 
 Zn2  Zn     0.250000      0.375000      0.000000 
 Zn3  Zn     0.000000      0.250000      0.375000 
 Zn4  Zn     0.000000      0.375000      0.250000 
 Zn5  Zn     0.250000      0.000000      0.375000 
 Zn6  Zn     0.125000      0.250000      0.000000 
 Zn7  Zn     0.125000      0.000000      0.250000 
 Zn8  Zn    -0.000000      0.125000      0.250000 
 Zn9  Zn     0.250000      0.000000      0.125000 
 Zn10  Zn     0.250000      0.125000      0.000000 
 Zn11  Zn    -0.000000      0.250000      0.125000 
 H12  H     0.369664      0.073856      0.310903 
 H13  H     0.380336      0.176143      0.060903 
 H14  H     0.369664      0.426144      0.189097 
 H15  H     0.380336      0.323857      0.439097 
 H16  H     0.310903      0.369664      0.073856 
 H17  H     0.073856      0.310903      0.369664 
 H18  H     0.439097      0.380336      0.323856 
 H19  H     0.176143      0.060903      0.380336 
 H20  H     0.060903      0.380336      0.176143 
 H21  H     0.426144      0.189097      0.369664 
 H22  H     0.189097      0.369664      0.426144 
 H23  H     0.323856      0.439097      0.380336 
 H24  H     0.073856      0.369664      0.310903 
 H25  H     0.176143      0.380336      0.060903 
 H26  H     0.426144      0.369664      0.189097 
 H27  H     0.323856      0.380336      0.439097 
 H28  H     0.369664      0.310903      0.073856 
 H29  H     0.310903      0.073856      0.369664 
 H30  H     0.380336      0.439097      0.323856 
 H31  H     0.380336      0.060903      0.176143 
 H32  H     0.060903      0.176143      0.380336 
 H33  H     0.189097      0.426144      0.369664 
 H34  H     0.369664      0.189097      0.426144 
 H35  H     0.439097      0.323856      0.380336 
 H36  H     0.297074      0.297074      0.472961 
 H37  H     0.452926      0.452926      0.222961 
 H38  H     0.047074      0.452926      0.277040 
 H39  H     0.452926      0.047074      0.277039 
 H40  H     0.472961      0.297074      0.297074 
 H41  H     0.297074      0.472961      0.297074 
 H42  H     0.277039      0.452926      0.047074 
 H43  H     0.452926      0.222961      0.452926 
 H44  H     0.222961      0.452926      0.452926 
 H45  H     0.202926      0.027039      0.297074 
 H46  H     0.277040      0.047074      0.452926 
 H47  H     0.297074      0.027039      0.202926 
 H48  H     0.119664      0.323857      0.060903 
 H49  H     0.130336      0.426144      0.310903 
 H50  H     0.119664      0.176143      0.439097 
 H51  H     0.130336      0.073856      0.189097 
 H52  H     0.060903      0.119664      0.323856 
 H53  H     0.323857      0.060903      0.119664 
 H54  H     0.189097      0.130336      0.073856 
 H55  H     0.426144      0.310903      0.130336 
 H56  H     0.310903      0.130336      0.426144 
 H57  H     0.176144      0.439097      0.119664 
 H58  H     0.439097      0.119664      0.176143 
 H59  H     0.073857      0.189097      0.130336 
 H60  H     0.323857      0.119664      0.060903 
 H61  H     0.426144      0.130336      0.310903 
 H62  H     0.176143      0.119664      0.439097 
 H63  H     0.073857      0.130336      0.189097 
 H64  H     0.119664      0.060903      0.323856 
 H65  H     0.060903      0.323857      0.119664 
 H66  H     0.130336      0.189097      0.073856 
 H67  H     0.130336      0.310903      0.426144 
 H68  H     0.310903      0.426144      0.130336 
 H69  H     0.439097      0.176143      0.119664 
 H70  H     0.119664      0.439097      0.176143 
 H71  H     0.189097      0.073856      0.130336 
 H72  H     0.047074      0.047074      0.222961 
 H73  H     0.202926      0.202926      0.472961 
 H74  H     0.297073      0.202927      0.027039 
 H75  H     0.202927      0.297073      0.027039 
 H76  H     0.222960      0.047074      0.047074 
 H77  H     0.047074      0.222960      0.047074 
 H78  H     0.027039      0.202927      0.297073 
 H79  H     0.202926      0.472961      0.202926 
 H80  H     0.472960      0.202926      0.202926 
 H81  H     0.452926      0.277040      0.047074 
 H82  H     0.027039      0.297073      0.202927 
 H83  H     0.047074      0.277040      0.452926 
 C84  C     0.346030      0.052687      0.317005 
 C85  C     0.403970      0.197313      0.067005 
 C86  C     0.346030      0.447313      0.182995 
 C87  C     0.403970      0.302687      0.432995 
 C88  C     0.317005      0.346030      0.052687 
 C89  C     0.052687      0.317005      0.346030 
 C90  C     0.432995      0.403970      0.302687 
 C91  C     0.197313      0.067005      0.403970 
 C92  C     0.067005      0.403970      0.197313 
 C93  C     0.447314      0.182994      0.346030 
 C94  C     0.182995      0.346030      0.447313 
 C95  C     0.302687      0.432995      0.403970 
 C96  C     0.052687      0.346030      0.317005 
 C97  C     0.197313      0.403970      0.067005 
 C98  C     0.447314      0.346030      0.182995 
 C99  C     0.302687      0.403970      0.432995 
 C100  C     0.346030      0.317005      0.052687 
 C101  C     0.317005      0.052687      0.346030 
 C102  C     0.403970      0.432995      0.302687 
 C103  C     0.403970      0.067005      0.197313 
 C104  C     0.067005      0.197313      0.403970 
 C105  C     0.182995      0.447313      0.346030 
 C106  C     0.346030      0.182994      0.447314 
 C107  C     0.432995      0.302687      0.403970 
 C108  C     0.309203      0.000390      0.309203 
 C109  C     0.190797      0.499610      0.309203 
 C110  C     0.309203      0.499610      0.190797 
 C111  C     0.440797      0.250390      0.440797 
 C112  C     0.309203      0.309203      0.000390 
 C113  C     0.000390      0.309203      0.309203 
 C114  C     0.440797      0.440797      0.250390 
 C115  C     0.249610      0.059203      0.440797 
 C116  C     0.059203      0.440797      0.249610 
 C117  C     0.249610      0.440797      0.059203 
 C118  C     0.440797      0.059203      0.249610 
 C119  C     0.250390      0.440797      0.440797 
 C120  C     0.096029      0.302687      0.067005 
 C121  C     0.153970      0.447313      0.317005 
 C122  C     0.096030      0.197313      0.432995 
 C123  C     0.153970      0.052687      0.182995 
 C124  C     0.067005      0.096030      0.302687 
 C125  C     0.302687      0.067005      0.096030 
 C126  C     0.182995      0.153970      0.052687 
 C127  C     0.447314      0.317006      0.153970 
 C128  C     0.317006      0.153970      0.447314 
 C129  C     0.197313      0.432995      0.096030 
 C130  C     0.432995      0.096030      0.197313 
 C131  C     0.052687      0.182995      0.153970 
 C132  C     0.302687      0.096030      0.067005 
 C133  C     0.447313      0.153970      0.317005 
 C134  C     0.197313      0.096030      0.432995 
 C135  C     0.052687      0.153970      0.182995 
 C136  C     0.096030      0.067005      0.302687 
 C137  C     0.067005      0.302687      0.096030 
 C138  C     0.153970      0.182995      0.052687 
 C139  C     0.153970      0.317006      0.447314 
 C140  C     0.317005      0.447313      0.153970 
 C141  C     0.432995      0.197313      0.096030 
 C142  C     0.096030      0.432995      0.197313 
 C143  C     0.182995      0.052687      0.153970 
 C144  C     0.059203      0.250390      0.059203 
 C145  C     0.440796      0.249610      0.059203 
 C146  C     0.059203      0.249610      0.440797 
 C147  C     0.190797      0.000390      0.190797 
 C148  C     0.059203      0.059203      0.250390 
 C149  C     0.250390      0.059204      0.059203 
 C150  C     0.190797      0.190797      0.000390 
 C151  C     0.499610      0.309203      0.190797 
 C152  C     0.309203      0.190797      0.499610 
 C153  C     0.499610      0.190797      0.309203 
 C154  C     0.190797      0.309203      0.499610 
 C155  C     0.000390      0.190797      0.190797 
 N156  N     0.340827      0.019396      0.293774 
 N157  N     0.409173      0.230604      0.043774 
 N158  N     0.340827      0.480604      0.206226 
 N159  N     0.409173      0.269396      0.456226 
 N160  N     0.293775      0.340827      0.019396 
 N161  N     0.019396      0.293774      0.340827 
 N162  N     0.456226      0.409173      0.269396 
 N163  N     0.230604      0.043775      0.409173 
 N164  N     0.043774      0.409173      0.230604 
 N165  N     0.480604      0.206226      0.340827 
 N166  N     0.206226      0.340827      0.480604 
 N167  N     0.269396      0.456226      0.409173 
 N168  N     0.019396      0.340827      0.293774 
 N169  N     0.230604      0.409173      0.043774 
 N170  N     0.480604      0.340827      0.206226 
 N171  N     0.269396      0.409173      0.456226 
 N172  N     0.340827      0.293775      0.019396 
 N173  N     0.293774      0.019396      0.340827 
 N174  N     0.409173      0.456226      0.269396 
 N175  N     0.409173      0.043774      0.230604 
 N176  N     0.043775      0.230604      0.409173 
 N177  N     0.206226      0.480604      0.340827 
 N178  N     0.340827      0.206226      0.480604 
 N179  N     0.456225      0.269396      0.409173 
 N180  N     0.090827      0.269396      0.043774 
 N181  N     0.159173      0.480604      0.293775 
 N182  N     0.090827      0.230604      0.456225 
 N183  N     0.159173      0.019396      0.206226 
 N184  N     0.043774      0.090827      0.269396 
 N185  N     0.269396      0.043775      0.090827 
 N186  N     0.206226      0.159173      0.019396 
 N187  N     0.480604      0.293774      0.159173 
 N188  N     0.293774      0.159173      0.480604 
 N189  N     0.230604      0.456225      0.090827 
 N190  N     0.456225      0.090827      0.230604 
 N191  N     0.019396      0.206225      0.159173 
 N192  N     0.269396      0.090827      0.043774 
 N193  N     0.480604      0.159173      0.293774 
 N194  N     0.230604      0.090827      0.456225 
 N195  N     0.019396      0.159173      0.206225 
 N196  N     0.090827      0.043774      0.269396 
 N197  N     0.043774      0.269396      0.090827 
 N198  N     0.159173      0.206226      0.019396 
 N199  N     0.159173      0.293774      0.480604 
 N200  N     0.293774      0.480604      0.159173 
 N201  N     0.456225      0.230604      0.090827 
 N202  N     0.090827      0.456225      0.230604 
 N203  N     0.206225      0.019396      0.159173 
 Zn204  Zn    -0.125000      0.000000      0.250000 
 Zn205  Zn    -0.125000      0.250000     -0.000000 
 Zn206  Zn    -0.250000      0.375000      0.000000 
 Zn207  Zn     0.500000      0.250000      0.375000 
 Zn208  Zn     0.500000      0.375000      0.250000 
 Zn209  Zn    -0.250000      0.000000      0.375000 
 Zn210  Zn    -0.375000      0.250000      0.000000 
 Zn211  Zn    -0.375000      0.000000      0.250000 
 Zn212  Zn     0.500000      0.125000      0.250000 
 Zn213  Zn    -0.250000      0.000000      0.125000 
 Zn214  Zn    -0.250000      0.125000      0.000000 
 Zn215  Zn     0.500000      0.250000      0.125000 
 H216  H    -0.130336      0.073856      0.310903 
 H217  H    -0.119664      0.176143      0.060903 
 H218  H    -0.130336      0.426144      0.189097 
 H219  H    -0.119664      0.323857      0.439097 
 H220  H    -0.189097      0.369664      0.073856 
 H221  H    -0.426144      0.310903      0.369664 
 H222  H    -0.060903      0.380336      0.323856 
 H223  H    -0.323857      0.060903      0.380336 
 H224  H    -0.439097      0.380336      0.176143 
 H225  H    -0.073856      0.189097      0.369664 
 H226  H    -0.310903      0.369664      0.426144 
 H227  H    -0.176144      0.439097      0.380336 
 H228  H    -0.426144      0.369664      0.310903 
 H229  H    -0.323857      0.380336      0.060903 
 H230  H    -0.073856      0.369664      0.189097 
 H231  H    -0.176144      0.380336      0.439097 
 H232  H    -0.130336      0.310903      0.073856 
 H233  H    -0.189097      0.073856      0.369664 
 H234  H    -0.119664      0.439097      0.323856 
 H235  H    -0.119664      0.060903      0.176143 
 H236  H    -0.439097      0.176143      0.380336 
 H237  H    -0.310903      0.426144      0.369664 
 H238  H    -0.130336      0.189097      0.426144 
 H239  H    -0.060903      0.323856      0.380336 
 H240  H    -0.202926      0.297074      0.472961 
 H241  H    -0.047074      0.452926      0.222961 
 H242  H    -0.452926      0.452926      0.277040 
 H243  H    -0.047074      0.047074      0.277039 
 H244  H    -0.027039      0.297074      0.297074 
 H245  H    -0.202926      0.472961      0.297074 
 H246  H    -0.222961      0.452926      0.047074 
 H247  H    -0.047074      0.222961      0.452926 
 H248  H    -0.277039      0.452926      0.452926 
 H249  H    -0.297074      0.027039      0.297074 
 H250  H    -0.222960      0.047074      0.452926 
 H251  H    -0.202926      0.027039      0.202926 
 H252  H    -0.380336      0.323857      0.060903 
 H253  H    -0.369664      0.426144      0.310903 
 H254  H    -0.380336      0.176143      0.439097 
 H255  H    -0.369664      0.073856      0.189097 
 H256  H    -0.439097      0.119664      0.323856 
 H257  H    -0.176143      0.060903      0.119664 
 H258  H    -0.310903      0.130336      0.073856 
 H259  H    -0.073856      0.310903      0.130336 
 H260  H    -0.189097      0.130336      0.426144 
 H261  H    -0.323856      0.439097      0.119664 
 H262  H    -0.060903      0.119664      0.176143 
 H263  H    -0.426143      0.189097      0.130336 
 H264  H    -0.176143      0.119664      0.060903 
 H265  H    -0.073856      0.130336      0.310903 
 H266  H    -0.323857      0.119664      0.439097 
 H267  H    -0.426143      0.130336      0.189097 
 H268  H    -0.380336      0.060903      0.323856 
 H269  H    -0.439097      0.323857      0.119664 
 H270  H    -0.369664      0.189097      0.073856 
 H271  H    -0.369664      0.310903      0.426144 
 H272  H    -0.189097      0.426144      0.130336 
 H273  H    -0.060903      0.176143      0.119664 
 H274  H    -0.380336      0.439097      0.176143 
 H275  H    -0.310903      0.073856      0.130336 
 H276  H    -0.452926      0.047074      0.222961 
 H277  H    -0.297074      0.202926      0.472961 
 H278  H    -0.202927      0.202927      0.027039 
 H279  H    -0.297073      0.297073      0.027039 
 H280  H    -0.277040      0.047074      0.047074 
 H281  H    -0.452926      0.222960      0.047074 
 H282  H    -0.472961      0.202927      0.297073 
 H283  H    -0.297074      0.472961      0.202926 
 H284  H    -0.027040      0.202926      0.202926 
 H285  H    -0.047074      0.277040      0.047074 
 H286  H    -0.472961      0.297073      0.202927 
 H287  H    -0.452926      0.277040      0.452926 
 C288  C    -0.153970      0.052687      0.317005 
 C289  C    -0.096030      0.197313      0.067005 
 C290  C    -0.153970      0.447313      0.182995 
 C291  C    -0.096030      0.302687      0.432995 
 C292  C    -0.182995      0.346030      0.052687 
 C293  C    -0.447313      0.317005      0.346030 
 C294  C    -0.067005      0.403970      0.302687 
 C295  C    -0.302687      0.067005      0.403970 
 C296  C    -0.432995      0.403970      0.197313 
 C297  C    -0.052686      0.182994      0.346030 
 C298  C    -0.317005      0.346030      0.447313 
 C299  C    -0.197313      0.432995      0.403970 
 C300  C    -0.447313      0.346030      0.317005 
 C301  C    -0.302687      0.403970      0.067005 
 C302  C    -0.052686      0.346030      0.182995 
 C303  C    -0.197313      0.403970      0.432995 
 C304  C    -0.153970      0.317005      0.052687 
 C305  C    -0.182995      0.052687      0.346030 
 C306  C    -0.096030      0.432995      0.302687 
 C307  C    -0.096030      0.067005      0.197313 
 C308  C    -0.432995      0.197313      0.403970 
 C309  C    -0.317005      0.447313      0.346030 
 C310  C    -0.153970      0.182994      0.447314 
 C311  C    -0.067005      0.302687      0.403970 
 C312  C    -0.190797      0.000390      0.309203 
 C313  C    -0.309203      0.499610      0.309203 
 C314  C    -0.190797      0.499610      0.190797 
 C315  C    -0.059203      0.250390      0.440797 
 C316  C    -0.190797      0.309203      0.000390 
 C317  C    -0.499610      0.309203      0.309203 
 C318  C    -0.059203      0.440797      0.250390 
 C319  C    -0.250390      0.059203      0.440797 
 C320  C    -0.440797      0.440797      0.249610 
 C321  C    -0.250390      0.440797      0.059203 
 C322  C    -0.059203      0.059203      0.249610 
 C323  C    -0.249610      0.440797      0.440797 
 C324  C    -0.403971      0.302687      0.067005 
 C325  C    -0.346030      0.447313      0.317005 
 C326  C    -0.403970      0.197313      0.432995 
 C327  C    -0.346030      0.052687      0.182995 
 C328  C    -0.432995      0.096030      0.302687 
 C329  C    -0.197313      0.067005      0.096030 
 C330  C    -0.317005      0.153970      0.052687 
 C331  C    -0.052686      0.317006      0.153970 
 C332  C    -0.182994      0.153970      0.447314 
 C333  C    -0.302687      0.432995      0.096030 
 C334  C    -0.067005      0.096030      0.197313 
 C335  C    -0.447313      0.182995      0.153970 
 C336  C    -0.197313      0.096030      0.067005 
 C337  C    -0.052687      0.153970      0.317005 
 C338  C    -0.302687      0.096030      0.432995 
 C339  C    -0.447313      0.153970      0.182995 
 C340  C    -0.403970      0.067005      0.302687 
 C341  C    -0.432995      0.302687      0.096030 
 C342  C    -0.346030      0.182995      0.052687 
 C343  C    -0.346030      0.317006      0.447314 
 C344  C    -0.182995      0.447313      0.153970 
 C345  C    -0.067005      0.197313      0.096030 
 C346  C    -0.403970      0.432995      0.197313 
 C347  C    -0.317005      0.052687      0.153970 
 C348  C    -0.440797      0.250390      0.059203 
 C349  C    -0.059204      0.249610      0.059203 
 C350  C    -0.440797      0.249610      0.440797 
 C351  C    -0.309203      0.000390      0.190797 
 C352  C    -0.440797      0.059203      0.250390 
 C353  C    -0.249610      0.059204      0.059203 
 C354  C    -0.309203      0.190797      0.000390 
 C355  C    -0.000390      0.309203      0.190797 
 C356  C    -0.190797      0.190797      0.499610 
 C357  C    -0.000390      0.190797      0.309203 
 C358  C    -0.309203      0.309203      0.499610 
 C359  C    -0.499610      0.190797      0.190797 
 N360  N    -0.159173      0.019396      0.293774 
 N361  N    -0.090827      0.230604      0.043774 
 N362  N    -0.159173      0.480604      0.206226 
 N363  N    -0.090827      0.269396      0.456226 
 N364  N    -0.206225      0.340827      0.019396 
 N365  N    -0.480604      0.293774      0.340827 
 N366  N    -0.043774      0.409173      0.269396 
 N367  N    -0.269396      0.043775      0.409173 
 N368  N    -0.456226      0.409173      0.230604 
 N369  N    -0.019396      0.206226      0.340827 
 N370  N    -0.293774      0.340827      0.480604 
 N371  N    -0.230604      0.456226      0.409173 
 N372  N    -0.480604      0.340827      0.293774 
 N373  N    -0.269396      0.409173      0.043774 
 N374  N    -0.019396      0.340827      0.206226 
 N375  N    -0.230604      0.409173      0.456226 
 N376  N    -0.159173      0.293775      0.019396 
 N377  N    -0.206226      0.019396      0.340827 
 N378  N    -0.090827      0.456226      0.269396 
 N379  N    -0.090827      0.043774      0.230604 
 N380  N    -0.456225      0.230604      0.409173 
 N381  N    -0.293774      0.480604      0.340827 
 N382  N    -0.159173      0.206226      0.480604 
 N383  N    -0.043775      0.269396      0.409173 
 N384  N    -0.409173      0.269396      0.043774 
 N385  N    -0.340827      0.480604      0.293775 
 N386  N    -0.409173      0.230604      0.456225 
 N387  N    -0.340827      0.019396      0.206226 
 N388  N    -0.456226      0.090827      0.269396 
 N389  N    -0.230604      0.043775      0.090827 
 N390  N    -0.293774      0.159173      0.019396 
 N391  N    -0.019396      0.293774      0.159173 
 N392  N    -0.206226      0.159173      0.480604 
 N393  N    -0.269396      0.456225      0.090827 
 N394  N    -0.043775      0.090827      0.230604 
 N395  N    -0.480604      0.206225      0.159173 
 N396  N    -0.230604      0.090827      0.043774 
 N397  N    -0.019396      0.159173      0.293774 
 N398  N    -0.269396      0.090827      0.456225 
 N399  N    -0.480604      0.159173      0.206225 
 N400  N    -0.409173      0.043774      0.269396 
 N401  N    -0.456226      0.269396      0.090827 
 N402  N    -0.340827      0.206226      0.019396 
 N403  N    -0.340827      0.293774      0.480604 
 N404  N    -0.206226      0.480604      0.159173 
 N405  N    -0.043775      0.230604      0.090827 
 N406  N    -0.409173      0.456225      0.230604 
 N407  N    -0.293775      0.019396      0.159173 
 Zn408  Zn     0.375000      0.500000      0.250000 
 Zn409  Zn     0.375000     -0.250000     -0.000000 
 Zn410  Zn     0.250000     -0.125000      0.000000 
 Zn411  Zn     0.000000     -0.250000      0.375000 
 Zn412  Zn     0.000000     -0.125000      0.250000 
 Zn413  Zn     0.250000     -0.500000      0.375000 
 Zn414  Zn     0.125000     -0.250000      0.000000 
 Zn415  Zn     0.125000      0.500000      0.250000 
 Zn416  Zn    -0.000000     -0.375000      0.250000 
 Zn417  Zn     0.250000     -0.500000      0.125000 
 Zn418  Zn     0.250000     -0.375000      0.000000 
 Zn419  Zn    -0.000000     -0.250000      0.125000 
 H420  H     0.369664     -0.426144      0.310903 
 H421  H     0.380336     -0.323857      0.060903 
 H422  H     0.369664     -0.073856      0.189097 
 H423  H     0.380336     -0.176143      0.439097 
 H424  H     0.310903     -0.130336      0.073856 
 H425  H     0.073856     -0.189097      0.369664 
 H426  H     0.439097     -0.119664      0.323856 
 H427  H     0.176143     -0.439097      0.380336 
 H428  H     0.060903     -0.119664      0.176143 
 H429  H     0.426144     -0.310903      0.369664 
 H430  H     0.189097     -0.130336      0.426144 
 H431  H     0.323856     -0.060903      0.380336 
 H432  H     0.073856     -0.130336      0.310903 
 H433  H     0.176143     -0.119664      0.060903 
 H434  H     0.426144     -0.130336      0.189097 
 H435  H     0.323856     -0.119664      0.439097 
 H436  H     0.369664     -0.189097      0.073856 
 H437  H     0.310903     -0.426144      0.369664 
 H438  H     0.380336     -0.060903      0.323856 
 H439  H     0.380336     -0.439097      0.176143 
 H440  H     0.060903     -0.323857      0.380336 
 H441  H     0.189097     -0.073856      0.369664 
 H442  H     0.369664     -0.310903      0.426144 
 H443  H     0.439097     -0.176144      0.380336 
 H444  H     0.297074     -0.202926      0.472961 
 H445  H     0.452926     -0.047074      0.222961 
 H446  H     0.047074     -0.047074      0.277040 
 H447  H     0.452926     -0.452926      0.277039 
 H448  H     0.472961     -0.202926      0.297074 
 H449  H     0.297074     -0.027039      0.297074 
 H450  H     0.277039     -0.047074      0.047074 
 H451  H     0.452926     -0.277039      0.452926 
 H452  H     0.222961     -0.047074      0.452926 
 H453  H     0.202926     -0.472961      0.297074 
 H454  H     0.277040     -0.452926      0.452926 
 H455  H     0.297074     -0.472961      0.202926 
 H456  H     0.119664     -0.176143      0.060903 
 H457  H     0.130336     -0.073856      0.310903 
 H458  H     0.119664     -0.323857      0.439097 
 H459  H     0.130336     -0.426144      0.189097 
 H460  H     0.060903     -0.380336      0.323856 
 H461  H     0.323857     -0.439097      0.119664 
 H462  H     0.189097     -0.369664      0.073856 
 H463  H     0.426144     -0.189097      0.130336 
 H464  H     0.310903     -0.369664      0.426144 
 H465  H     0.176144     -0.060903      0.119664 
 H466  H     0.439097     -0.380336      0.176143 
 H467  H     0.073857     -0.310903      0.130336 
 H468  H     0.323857     -0.380336      0.060903 
 H469  H     0.426144     -0.369664      0.310903 
 H470  H     0.176143     -0.380336      0.439097 
 H471  H     0.073857     -0.369664      0.189097 
 H472  H     0.119664     -0.439097      0.323856 
 H473  H     0.060903     -0.176143      0.119664 
 H474  H     0.130336     -0.310903      0.073856 
 H475  H     0.130336     -0.189097      0.426144 
 H476  H     0.310903     -0.073856      0.130336 
 H477  H     0.439097     -0.323857      0.119664 
 H478  H     0.119664     -0.060903      0.176143 
 H479  H     0.189097     -0.426144      0.130336 
 H480  H     0.047074     -0.452926      0.222961 
 H481  H     0.202926     -0.297074      0.472961 
 H482  H     0.297073     -0.297073      0.027039 
 H483  H     0.202927     -0.202927      0.027039 
 H484  H     0.222960     -0.452926      0.047074 
 H485  H     0.047074     -0.277040      0.047074 
 H486  H     0.027039     -0.297073      0.297073 
 H487  H     0.202926     -0.027039      0.202926 
 H488  H     0.472960     -0.297074      0.202926 
 H489  H     0.452926     -0.222960      0.047074 
 H490  H     0.027039     -0.202927      0.202927 
 H491  H     0.047074     -0.222960      0.452926 
 C492  C     0.346030     -0.447313      0.317005 
 C493  C     0.403970     -0.302687      0.067005 
 C494  C     0.346030     -0.052687      0.182995 
 C495  C     0.403970     -0.197313      0.432995 
 C496  C     0.317005     -0.153970      0.052687 
 C497  C     0.052687     -0.182995      0.346030 
 C498  C     0.432995     -0.096030      0.302687 
 C499  C     0.197313     -0.432995      0.403970 
 C500  C     0.067005     -0.096030      0.197313 
 C501  C     0.447314     -0.317006      0.346030 
 C502  C     0.182995     -0.153970      0.447313 
 C503  C     0.302687     -0.067005      0.403970 
 C504  C     0.052687     -0.153970      0.317005 
 C505  C     0.197313     -0.096030      0.067005 
 C506  C     0.447314     -0.153970      0.182995 
 C507  C     0.302687     -0.096030      0.432995 
 C508  C     0.346030     -0.182995      0.052687 
 C509  C     0.317005     -0.447313      0.346030 
 C510  C     0.403970     -0.067005      0.302687 
 C511  C     0.403970     -0.432995      0.197313 
 C512  C     0.067005     -0.302687      0.403970 
 C513  C     0.182995     -0.052687      0.346030 
 C514  C     0.346030     -0.317006      0.447314 
 C515  C     0.432995     -0.197313      0.403970 
 C516  C     0.309203     -0.499610      0.309203 
 C517  C     0.190797     -0.000390      0.309203 
 C518  C     0.309203     -0.000390      0.190797 
 C519  C     0.440797     -0.249610      0.440797 
 C520  C     0.309203     -0.190797      0.000390 
 C521  C     0.000390     -0.190797      0.309203 
 C522  C     0.440797     -0.059203      0.250390 
 C523  C     0.249610     -0.440797      0.440797 
 C524  C     0.059203     -0.059203      0.249610 
 C525  C     0.249610     -0.059203      0.059203 
 C526  C     0.440797     -0.440797      0.249610 
 C527  C     0.250390     -0.059203      0.440797 
 C528  C     0.096029     -0.197313      0.067005 
 C529  C     0.153970     -0.052687      0.317005 
 C530  C     0.096030     -0.302687      0.432995 
 C531  C     0.153970     -0.447313      0.182995 
 C532  C     0.067005     -0.403970      0.302687 
 C533  C     0.302687     -0.432995      0.096030 
 C534  C     0.182995     -0.346030      0.052687 
 C535  C     0.447314     -0.182994      0.153970 
 C536  C     0.317006     -0.346030      0.447314 
 C537  C     0.197313     -0.067005      0.096030 
 C538  C     0.432995     -0.403970      0.197313 
 C539  C     0.052687     -0.317005      0.153970 
 C540  C     0.302687     -0.403970      0.067005 
 C541  C     0.447313     -0.346030      0.317005 
 C542  C     0.197313     -0.403970      0.432995 
 C543  C     0.052687     -0.346030      0.182995 
 C544  C     0.096030     -0.432995      0.302687 
 C545  C     0.067005     -0.197313      0.096030 
 C546  C     0.153970     -0.317005      0.052687 
 C547  C     0.153970     -0.182994      0.447314 
 C548  C     0.317005     -0.052687      0.153970 
 C549  C     0.432995     -0.302687      0.096030 
 C550  C     0.096030     -0.067005      0.197313 
 C551  C     0.182995     -0.447313      0.153970 
 C552  C     0.059203     -0.249610      0.059203 
 C553  C     0.440796     -0.250390      0.059203 
 C554  C     0.059203     -0.250390      0.440797 
 C555  C     0.190797     -0.499610      0.190797 
 C556  C     0.059203     -0.440797      0.250390 
 C557  C     0.250390     -0.440796      0.059203 
 C558  C     0.190797     -0.309203      0.000390 
 C559  C     0.499610     -0.190797      0.190797 
 C560  C     0.309203     -0.309203      0.499610 
 C561  C     0.499610     -0.309203      0.309203 
 C562  C     0.190797     -0.190797      0.499610 
 C563  C     0.000390     -0.309203      0.190797 
 N564  N     0.340827     -0.480604      0.293774 
 N565  N     0.409173     -0.269396      0.043774 
 N566  N     0.340827     -0.019396      0.206226 
 N567  N     0.409173     -0.230604      0.456226 
 N568  N     0.293775     -0.159173      0.019396 
 N569  N     0.019396     -0.206226      0.340827 
 N570  N     0.456226     -0.090827      0.269396 
 N571  N     0.230604     -0.456225      0.409173 
 N572  N     0.043774     -0.090827      0.230604 
 N573  N     0.480604     -0.293774      0.340827 
 N574  N     0.206226     -0.159173      0.480604 
 N575  N     0.269396     -0.043774      0.409173 
 N576  N     0.019396     -0.159173      0.293774 
 N577  N     0.230604     -0.090827      0.043774 
 N578  N     0.480604     -0.159173      0.206226 
 N579  N     0.269396     -0.090827      0.456226 
 N580  N     0.340827     -0.206225      0.019396 
 N581  N     0.293774     -0.480604      0.340827 
 N582  N     0.409173     -0.043774      0.269396 
 N583  N     0.409173     -0.456226      0.230604 
 N584  N     0.043775     -0.269396      0.409173 
 N585  N     0.206226     -0.019396      0.340827 
 N586  N     0.340827     -0.293774      0.480604 
 N587  N     0.456225     -0.230604      0.409173 
 N588  N     0.090827     -0.230604      0.043774 
 N589  N     0.159173     -0.019396      0.293775 
 N590  N     0.090827     -0.269396      0.456225 
 N591  N     0.159173     -0.480604      0.206226 
 N592  N     0.043774     -0.409173      0.269396 
 N593  N     0.269396     -0.456225      0.090827 
 N594  N     0.206226     -0.340827      0.019396 
 N595  N     0.480604     -0.206226      0.159173 
 N596  N     0.293774     -0.340827      0.480604 
 N597  N     0.230604     -0.043775      0.090827 
 N598  N     0.456225     -0.409173      0.230604 
 N599  N     0.019396     -0.293775      0.159173 
 N600  N     0.269396     -0.409173      0.043774 
 N601  N     0.480604     -0.340827      0.293774 
 N602  N     0.230604     -0.409173      0.456225 
 N603  N     0.019396     -0.340827      0.206225 
 N604  N     0.090827     -0.456226      0.269396 
 N605  N     0.043774     -0.230604      0.090827 
 N606  N     0.159173     -0.293774      0.019396 
 N607  N     0.159173     -0.206226      0.480604 
 N608  N     0.293774     -0.019396      0.159173 
 N609  N     0.456225     -0.269396      0.090827 
 N610  N     0.090827     -0.043775      0.230604 
 N611  N     0.206225     -0.480604      0.159173 
 Zn612  Zn    -0.125000      0.500000      0.250000 
 Zn613  Zn    -0.125000     -0.250000     -0.000000 
 Zn614  Zn    -0.250000     -0.125000      0.000000 
 Zn615  Zn     0.500000     -0.250000      0.375000 
 Zn616  Zn     0.500000     -0.125000      0.250000 
 Zn617  Zn    -0.250000     -0.500000      0.375000 
 Zn618  Zn    -0.375000     -0.250000      0.000000 
 Zn619  Zn    -0.375000      0.500000      0.250000 
 Zn620  Zn     0.500000     -0.375000      0.250000 
 Zn621  Zn    -0.250000     -0.500000      0.125000 
 Zn622  Zn    -0.250000     -0.375000      0.000000 
 Zn623  Zn     0.500000     -0.250000      0.125000 
 H624  H    -0.130336     -0.426144      0.310903 
 H625  H    -0.119664     -0.323857      0.060903 
 H626  H    -0.130336     -0.073856      0.189097 
 H627  H    -0.119664     -0.176143      0.439097 
 H628  H    -0.189097     -0.130336      0.073856 
 H629  H    -0.426144     -0.189097      0.369664 
 H630  H    -0.060903     -0.119664      0.323856 
 H631  H    -0.323857     -0.439097      0.380336 
 H632  H    -0.439097     -0.119664      0.176143 
 H633  H    -0.073856     -0.310903      0.369664 
 H634  H    -0.310903     -0.130336      0.426144 
 H635  H    -0.176144     -0.060903      0.380336 
 H636  H    -0.426144     -0.130336      0.310903 
 H637  H    -0.323857     -0.119664      0.060903 
 H638  H    -0.073856     -0.130336      0.189097 
 H639  H    -0.176144     -0.119664      0.439097 
 H640  H    -0.130336     -0.189097      0.073856 
 H641  H    -0.189097     -0.426144      0.369664 
 H642  H    -0.119664     -0.060903      0.323856 
 H643  H    -0.119664     -0.439097      0.176143 
 H644  H    -0.439097     -0.323857      0.380336 
 H645  H    -0.310903     -0.073856      0.369664 
 H646  H    -0.130336     -0.310903      0.426144 
 H647  H    -0.060903     -0.176144      0.380336 
 H648  H    -0.202926     -0.202926      0.472961 
 H649  H    -0.047074     -0.047074      0.222961 
 H650  H    -0.452926     -0.047074      0.277040 
 H651  H    -0.047074     -0.452926      0.277039 
 H652  H    -0.027039     -0.202926      0.297074 
 H653  H    -0.202926     -0.027039      0.297074 
 H654  H    -0.222961     -0.047074      0.047074 
 H655  H    -0.047074     -0.277039      0.452926 
 H656  H    -0.277039     -0.047074      0.452926 
 H657  H    -0.297074     -0.472961      0.297074 
 H658  H    -0.222960     -0.452926      0.452926 
 H659  H    -0.202926     -0.472961      0.202926 
 H660  H    -0.380336     -0.176143      0.060903 
 H661  H    -0.369664     -0.073856      0.310903 
 H662  H    -0.380336     -0.323857      0.439097 
 H663  H    -0.369664     -0.426144      0.189097 
 H664  H    -0.439097     -0.380336      0.323856 
 H665  H    -0.176143     -0.439097      0.119664 
 H666  H    -0.310903     -0.369664      0.073856 
 H667  H    -0.073856     -0.189097      0.130336 
 H668  H    -0.189097     -0.369664      0.426144 
 H669  H    -0.323856     -0.060903      0.119664 
 H670  H    -0.060903     -0.380336      0.176143 
 H671  H    -0.426143     -0.310903      0.130336 
 H672  H    -0.176143     -0.380336      0.060903 
 H673  H    -0.073856     -0.369664      0.310903 
 H674  H    -0.323857     -0.380336      0.439097 
 H675  H    -0.426143     -0.369664      0.189097 
 H676  H    -0.380336     -0.439097      0.323856 
 H677  H    -0.439097     -0.176143      0.119664 
 H678  H    -0.369664     -0.310903      0.073856 
 H679  H    -0.369664     -0.189097      0.426144 
 H680  H    -0.189097     -0.073856      0.130336 
 H681  H    -0.060903     -0.323857      0.119664 
 H682  H    -0.380336     -0.060903      0.176143 
 H683  H    -0.310903     -0.426144      0.130336 
 H684  H    -0.452926     -0.452926      0.222961 
 H685  H    -0.297074     -0.297074      0.472961 
 H686  H    -0.202927     -0.297073      0.027039 
 H687  H    -0.297073     -0.202927      0.027039 
 H688  H    -0.277040     -0.452926      0.047074 
 H689  H    -0.452926     -0.277040      0.047074 
 H690  H    -0.472961     -0.297073      0.297073 
 H691  H    -0.297074     -0.027039      0.202926 
 H692  H    -0.027040     -0.297074      0.202926 
 H693  H    -0.047074     -0.222960      0.047074 
 H694  H    -0.472961     -0.202927      0.202927 
 H695  H    -0.452926     -0.222960      0.452926 
 C696  C    -0.153970     -0.447313      0.317005 
 C697  C    -0.096030     -0.302687      0.067005 
 C698  C    -0.153970     -0.052687      0.182995 
 C699  C    -0.096030     -0.197313      0.432995 
 C700  C    -0.182995     -0.153970      0.052687 
 C701  C    -0.447313     -0.182995      0.346030 
 C702  C    -0.067005     -0.096030      0.302687 
 C703  C    -0.302687     -0.432995      0.403970 
 C704  C    -0.432995     -0.096030      0.197313 
 C705  C    -0.052686     -0.317006      0.346030 
 C706  C    -0.317005     -0.153970      0.447313 
 C707  C    -0.197313     -0.067005      0.403970 
 C708  C    -0.447313     -0.153970      0.317005 
 C709  C    -0.302687     -0.096030      0.067005 
 C710  C    -0.052686     -0.153970      0.182995 
 C711  C    -0.197313     -0.096030      0.432995 
 C712  C    -0.153970     -0.182995      0.052687 
 C713  C    -0.182995     -0.447313      0.346030 
 C714  C    -0.096030     -0.067005      0.302687 
 C715  C    -0.096030     -0.432995      0.197313 
 C716  C    -0.432995     -0.302687      0.403970 
 C717  C    -0.317005     -0.052687      0.346030 
 C718  C    -0.153970     -0.317006      0.447314 
 C719  C    -0.067005     -0.197313      0.403970 
 C720  C    -0.190797     -0.499610      0.309203 
 C721  C    -0.309203     -0.000390      0.309203 
 C722  C    -0.190797     -0.000390      0.190797 
 C723  C    -0.059203     -0.249610      0.440797 
 C724  C    -0.190797     -0.190797      0.000390 
 C725  C    -0.499610     -0.190797      0.309203 
 C726  C    -0.059203     -0.059203      0.250390 
 C727  C    -0.250390     -0.440797      0.440797 
 C728  C    -0.440797     -0.059203      0.249610 
 C729  C    -0.250390     -0.059203      0.059203 
 C730  C    -0.059203     -0.440797      0.249610 
 C731  C    -0.249610     -0.059203      0.440797 
 C732  C    -0.403971     -0.197313      0.067005 
 C733  C    -0.346030     -0.052687      0.317005 
 C734  C    -0.403970     -0.302687      0.432995 
 C735  C    -0.346030     -0.447313      0.182995 
 C736  C    -0.432995     -0.403970      0.302687 
 C737  C    -0.197313     -0.432995      0.096030 
 C738  C    -0.317005     -0.346030      0.052687 
 C739  C    -0.052686     -0.182994      0.153970 
 C740  C    -0.182994     -0.346030      0.447314 
 C741  C    -0.302687     -0.067005      0.096030 
 C742  C    -0.067005     -0.403970      0.197313 
 C743  C    -0.447313     -0.317005      0.153970 
 C744  C    -0.197313     -0.403970      0.067005 
 C745  C    -0.052687     -0.346030      0.317005 
 C746  C    -0.302687     -0.403970      0.432995 
 C747  C    -0.447313     -0.346030      0.182995 
 C748  C    -0.403970     -0.432995      0.302687 
 C749  C    -0.432995     -0.197313      0.096030 
 C750  C    -0.346030     -0.317005      0.052687 
 C751  C    -0.346030     -0.182994      0.447314 
 C752  C    -0.182995     -0.052687      0.153970 
 C753  C    -0.067005     -0.302687      0.096030 
 C754  C    -0.403970     -0.067005      0.197313 
 C755  C    -0.317005     -0.447313      0.153970 
 C756  C    -0.440797     -0.249610      0.059203 
 C757  C    -0.059204     -0.250390      0.059203 
 C758  C    -0.440797     -0.250390      0.440797 
 C759  C    -0.309203     -0.499610      0.190797 
 C760  C    -0.440797     -0.440797      0.250390 
 C761  C    -0.249610     -0.440796      0.059203 
 C762  C    -0.309203     -0.309203      0.000390 
 C763  C    -0.000390     -0.190797      0.190797 
 C764  C    -0.190797     -0.309203      0.499610 
 C765  C    -0.000390     -0.309203      0.309203 
 C766  C    -0.309203     -0.190797      0.499610 
 C767  C    -0.499610     -0.309203      0.190797 
 N768  N    -0.159173     -0.480604      0.293774 
 N769  N    -0.090827     -0.269396      0.043774 
 N770  N    -0.159173     -0.019396      0.206226 
 N771  N    -0.090827     -0.230604      0.456226 
 N772  N    -0.206225     -0.159173      0.019396 
 N773  N    -0.480604     -0.206226      0.340827 
 N774  N    -0.043774     -0.090827      0.269396 
 N775  N    -0.269396     -0.456225      0.409173 
 N776  N    -0.456226     -0.090827      0.230604 
 N777  N    -0.019396     -0.293774      0.340827 
 N778  N    -0.293774     -0.159173      0.480604 
 N779  N    -0.230604     -0.043774      0.409173 
 N780  N    -0.480604     -0.159173      0.293774 
 N781  N    -0.269396     -0.090827      0.043774 
 N782  N    -0.019396     -0.159173      0.206226 
 N783  N    -0.230604     -0.090827      0.456226 
 N784  N    -0.159173     -0.206225      0.019396 
 N785  N    -0.206226     -0.480604      0.340827 
 N786  N    -0.090827     -0.043774      0.269396 
 N787  N    -0.090827     -0.456226      0.230604 
 N788  N    -0.456225     -0.269396      0.409173 
 N789  N    -0.293774     -0.019396      0.340827 
 N790  N    -0.159173     -0.293774      0.480604 
 N791  N    -0.043775     -0.230604      0.409173 
 N792  N    -0.409173     -0.230604      0.043774 
 N793  N    -0.340827     -0.019396      0.293775 
 N794  N    -0.409173     -0.269396      0.456225 
 N795  N    -0.340827     -0.480604      0.206226 
 N796  N    -0.456226     -0.409173      0.269396 
 N797  N    -0.230604     -0.456225      0.090827 
 N798  N    -0.293774     -0.340827      0.019396 
 N799  N    -0.019396     -0.206226      0.159173 
 N800  N    -0.206226     -0.340827      0.480604 
 N801  N    -0.269396     -0.043775      0.090827 
 N802  N    -0.043775     -0.409173      0.230604 
 N803  N    -0.480604     -0.293775      0.159173 
 N804  N    -0.230604     -0.409173      0.043774 
 N805  N    -0.019396     -0.340827      0.293774 
 N806  N    -0.269396     -0.409173      0.456225 
 N807  N    -0.480604     -0.340827      0.206225 
 N808  N    -0.409173     -0.456226      0.269396 
 N809  N    -0.456226     -0.230604      0.090827 
 N810  N    -0.340827     -0.293774      0.019396 
 N811  N    -0.340827     -0.206226      0.480604 
 N812  N    -0.206226     -0.019396      0.159173 
 N813  N    -0.043775     -0.269396      0.090827 
 N814  N    -0.409173     -0.043775      0.230604 
 N815  N    -0.293775     -0.480604      0.159173 
 Zn816  Zn     0.375000      0.000000     -0.250000 
 Zn817  Zn     0.375000      0.250000      0.500000 
 Zn818  Zn     0.250000      0.375000      0.500000 
 Zn819  Zn     0.000000      0.250000     -0.125000 
 Zn820  Zn     0.000000      0.375000     -0.250000 
 Zn821  Zn     0.250000      0.000000     -0.125000 
 Zn822  Zn     0.125000      0.250000      0.500000 
 Zn823  Zn     0.125000      0.000000     -0.250000 
 Zn824  Zn    -0.000000      0.125000     -0.250000 
 Zn825  Zn     0.250000      0.000000     -0.375000 
 Zn826  Zn     0.250000      0.125000      0.500000 
 Zn827  Zn    -0.000000      0.250000     -0.375000 
 H828  H     0.369664      0.073856     -0.189097 
 H829  H     0.380336      0.176143     -0.439097 
 H830  H     0.369664      0.426144     -0.310903 
 H831  H     0.380336      0.323857     -0.060903 
 H832  H     0.310903      0.369664     -0.426144 
 H833  H     0.073856      0.310903     -0.130336 
 H834  H     0.439097      0.380336     -0.176144 
 H835  H     0.176143      0.060903     -0.119664 
 H836  H     0.060903      0.380336     -0.323857 
 H837  H     0.426144      0.189097     -0.130336 
 H838  H     0.189097      0.369664     -0.073856 
 H839  H     0.323856      0.439097     -0.119664 
 H840  H     0.073856      0.369664     -0.189097 
 H841  H     0.176143      0.380336     -0.439097 
 H842  H     0.426144      0.369664     -0.310903 
 H843  H     0.323856      0.380336     -0.060903 
 H844  H     0.369664      0.310903     -0.426144 
 H845  H     0.310903      0.073856     -0.130336 
 H846  H     0.380336      0.439097     -0.176144 
 H847  H     0.380336      0.060903     -0.323857 
 H848  H     0.060903      0.176143     -0.119664 
 H849  H     0.189097      0.426144     -0.130336 
 H850  H     0.369664      0.189097     -0.073856 
 H851  H     0.439097      0.323856     -0.119664 
 H852  H     0.297074      0.297074     -0.027039 
 H853  H     0.452926      0.452926     -0.277039 
 H854  H     0.047074      0.452926     -0.222960 
 H855  H     0.452926      0.047074     -0.222961 
 H856  H     0.472961      0.297074     -0.202926 
 H857  H     0.297074      0.472961     -0.202926 
 H858  H     0.277039      0.452926     -0.452926 
 H859  H     0.452926      0.222961     -0.047074 
 H860  H     0.222961      0.452926     -0.047074 
 H861  H     0.202926      0.027039     -0.202926 
 H862  H     0.277040      0.047074     -0.047074 
 H863  H     0.297074      0.027039     -0.297074 
 H864  H     0.119664      0.323857     -0.439097 
 H865  H     0.130336      0.426144     -0.189097 
 H866  H     0.119664      0.176143     -0.060903 
 H867  H     0.130336      0.073856     -0.310903 
 H868  H     0.060903      0.119664     -0.176144 
 H869  H     0.323857      0.060903     -0.380336 
 H870  H     0.189097      0.130336     -0.426144 
 H871  H     0.426144      0.310903     -0.369664 
 H872  H     0.310903      0.130336     -0.073856 
 H873  H     0.176144      0.439097     -0.380336 
 H874  H     0.439097      0.119664     -0.323857 
 H875  H     0.073857      0.189097     -0.369664 
 H876  H     0.323857      0.119664     -0.439097 
 H877  H     0.426144      0.130336     -0.189097 
 H878  H     0.176143      0.119664     -0.060903 
 H879  H     0.073857      0.130336     -0.310903 
 H880  H     0.119664      0.060903     -0.176144 
 H881  H     0.060903      0.323857     -0.380336 
 H882  H     0.130336      0.189097     -0.426144 
 H883  H     0.130336      0.310903     -0.073856 
 H884  H     0.310903      0.426144     -0.369664 
 H885  H     0.439097      0.176143     -0.380336 
 H886  H     0.119664      0.439097     -0.323857 
 H887  H     0.189097      0.073856     -0.369664 
 H888  H     0.047074      0.047074     -0.277039 
 H889  H     0.202926      0.202926     -0.027039 
 H890  H     0.297073      0.202927     -0.472961 
 H891  H     0.202927      0.297073     -0.472961 
 H892  H     0.222960      0.047074     -0.452926 
 H893  H     0.047074      0.222960     -0.452926 
 H894  H     0.027039      0.202927     -0.202927 
 H895  H     0.202926      0.472961     -0.297074 
 H896  H     0.472960      0.202926     -0.297074 
 H897  H     0.452926      0.277040     -0.452926 
 H898  H     0.027039      0.297073     -0.297073 
 H899  H     0.047074      0.277040     -0.047074 
 C900  C     0.346030      0.052687     -0.182995 
 C901  C     0.403970      0.197313     -0.432995 
 C902  C     0.346030      0.447313     -0.317005 
 C903  C     0.403970      0.302687     -0.067005 
 C904  C     0.317005      0.346030     -0.447313 
 C905  C     0.052687      0.317005     -0.153970 
 C906  C     0.432995      0.403970     -0.197313 
 C907  C     0.197313      0.067005     -0.096030 
 C908  C     0.067005      0.403970     -0.302687 
 C909  C     0.447314      0.182994     -0.153970 
 C910  C     0.182995      0.346030     -0.052687 
 C911  C     0.302687      0.432995     -0.096030 
 C912  C     0.052687      0.346030     -0.182995 
 C913  C     0.197313      0.403970     -0.432995 
 C914  C     0.447314      0.346030     -0.317005 
 C915  C     0.302687      0.403970     -0.067005 
 C916  C     0.346030      0.317005     -0.447313 
 C917  C     0.317005      0.052687     -0.153970 
 C918  C     0.403970      0.432995     -0.197313 
 C919  C     0.403970      0.067005     -0.302687 
 C920  C     0.067005      0.197313     -0.096030 
 C921  C     0.182995      0.447313     -0.153970 
 C922  C     0.346030      0.182994     -0.052686 
 C923  C     0.432995      0.302687     -0.096030 
 C924  C     0.309203      0.000390     -0.190797 
 C925  C     0.190797      0.499610     -0.190797 
 C926  C     0.309203      0.499610     -0.309203 
 C927  C     0.440797      0.250390     -0.059203 
 C928  C     0.309203      0.309203     -0.499610 
 C929  C     0.000390      0.309203     -0.190797 
 C930  C     0.440797      0.440797     -0.249610 
 C931  C     0.249610      0.059203     -0.059203 
 C932  C     0.059203      0.440797     -0.250390 
 C933  C     0.249610      0.440797     -0.440797 
 C934  C     0.440797      0.059203     -0.250390 
 C935  C     0.250390      0.440797     -0.059203 
 C936  C     0.096029      0.302687     -0.432995 
 C937  C     0.153970      0.447313     -0.182995 
 C938  C     0.096030      0.197313     -0.067005 
 C939  C     0.153970      0.052687     -0.317005 
 C940  C     0.067005      0.096030     -0.197313 
 C941  C     0.302687      0.067005     -0.403970 
 C942  C     0.182995      0.153970     -0.447313 
 C943  C     0.447314      0.317006     -0.346030 
 C944  C     0.317006      0.153970     -0.052686 
 C945  C     0.197313      0.432995     -0.403970 
 C946  C     0.432995      0.096030     -0.302687 
 C947  C     0.052687      0.182995     -0.346030 
 C948  C     0.302687      0.096030     -0.432995 
 C949  C     0.447313      0.153970     -0.182995 
 C950  C     0.197313      0.096030     -0.067005 
 C951  C     0.052687      0.153970     -0.317005 
 C952  C     0.096030      0.067005     -0.197313 
 C953  C     0.067005      0.302687     -0.403970 
 C954  C     0.153970      0.182995     -0.447313 
 C955  C     0.153970      0.317006     -0.052686 
 C956  C     0.317005      0.447313     -0.346030 
 C957  C     0.432995      0.197313     -0.403970 
 C958  C     0.096030      0.432995     -0.302687 
 C959  C     0.182995      0.052687     -0.346030 
 C960  C     0.059203      0.250390     -0.440797 
 C961  C     0.440796      0.249610     -0.440797 
 C962  C     0.059203      0.249610     -0.059203 
 C963  C     0.190797      0.000390     -0.309203 
 C964  C     0.059203      0.059203     -0.249610 
 C965  C     0.250390      0.059204     -0.440797 
 C966  C     0.190797      0.190797     -0.499610 
 C967  C     0.499610      0.309203     -0.309203 
 C968  C     0.309203      0.190797     -0.000390 
 C969  C     0.499610      0.190797     -0.190797 
 C970  C     0.190797      0.309203     -0.000390 
 C971  C     0.000390      0.190797     -0.309203 
 N972  N     0.340827      0.019396     -0.206226 
 N973  N     0.409173      0.230604     -0.456226 
 N974  N     0.340827      0.480604     -0.293774 
 N975  N     0.409173      0.269396     -0.043774 
 N976  N     0.293775      0.340827     -0.480604 
 N977  N     0.019396      0.293774     -0.159173 
 N978  N     0.456226      0.409173     -0.230604 
 N979  N     0.230604      0.043775     -0.090827 
 N980  N     0.043774      0.409173     -0.269396 
 N981  N     0.480604      0.206226     -0.159173 
 N982  N     0.206226      0.340827     -0.019396 
 N983  N     0.269396      0.456226     -0.090827 
 N984  N     0.019396      0.340827     -0.206226 
 N985  N     0.230604      0.409173     -0.456226 
 N986  N     0.480604      0.340827     -0.293774 
 N987  N     0.269396      0.409173     -0.043774 
 N988  N     0.340827      0.293775     -0.480604 
 N989  N     0.293774      0.019396     -0.159173 
 N990  N     0.409173      0.456226     -0.230604 
 N991  N     0.409173      0.043774     -0.269396 
 N992  N     0.043775      0.230604     -0.090827 
 N993  N     0.206226      0.480604     -0.159173 
 N994  N     0.340827      0.206226     -0.019396 
 N995  N     0.456225      0.269396     -0.090827 
 N996  N     0.090827      0.269396     -0.456226 
 N997  N     0.159173      0.480604     -0.206225 
 N998  N     0.090827      0.230604     -0.043775 
 N999  N     0.159173      0.019396     -0.293774 
 N1000  N     0.043774      0.090827     -0.230604 
 N1001  N     0.269396      0.043775     -0.409173 
 N1002  N     0.206226      0.159173     -0.480604 
 N1003  N     0.480604      0.293774     -0.340827 
 N1004  N     0.293774      0.159173     -0.019396 
 N1005  N     0.230604      0.456225     -0.409173 
 N1006  N     0.456225      0.090827     -0.269396 
 N1007  N     0.019396      0.206225     -0.340827 
 N1008  N     0.269396      0.090827     -0.456226 
 N1009  N     0.480604      0.159173     -0.206226 
 N1010  N     0.230604      0.090827     -0.043775 
 N1011  N     0.019396      0.159173     -0.293775 
 N1012  N     0.090827      0.043774     -0.230604 
 N1013  N     0.043774      0.269396     -0.409173 
 N1014  N     0.159173      0.206226     -0.480604 
 N1015  N     0.159173      0.293774     -0.019396 
 N1016  N     0.293774      0.480604     -0.340827 
 N1017  N     0.456225      0.230604     -0.409173 
 N1018  N     0.090827      0.456225     -0.269396 
 N1019  N     0.206225      0.019396     -0.340827 
 Zn1020  Zn    -0.125000      0.000000     -0.250000 
 Zn1021  Zn    -0.125000      0.250000      0.500000 
 Zn1022  Zn    -0.250000      0.375000      0.500000 
 Zn1023  Zn     0.500000      0.250000     -0.125000 
 Zn1024  Zn     0.500000      0.375000     -0.250000 
 Zn1025  Zn    -0.250000      0.000000     -0.125000 
 Zn1026  Zn    -0.375000      0.250000      0.500000 
 Zn1027  Zn    -0.375000      0.000000     -0.250000 
 Zn1028  Zn     0.500000      0.125000     -0.250000 
 Zn1029  Zn    -0.250000      0.000000     -0.375000 
 Zn1030  Zn    -0.250000      0.125000      0.500000 
 Zn1031  Zn     0.500000      0.250000     -0.375000 
 H1032  H    -0.130336      0.073856     -0.189097 
 H1033  H    -0.119664      0.176143     -0.439097 
 H1034  H    -0.130336      0.426144     -0.310903 
 H1035  H    -0.119664      0.323857     -0.060903 
 H1036  H    -0.189097      0.369664     -0.426144 
 H1037  H    -0.426144      0.310903     -0.130336 
 H1038  H    -0.060903      0.380336     -0.176144 
 H1039  H    -0.323857      0.060903     -0.119664 
 H1040  H    -0.439097      0.380336     -0.323857 
 H1041  H    -0.073856      0.189097     -0.130336 
 H1042  H    -0.310903      0.369664     -0.073856 
 H1043  H    -0.176144      0.439097     -0.119664 
 H1044  H    -0.426144      0.369664     -0.189097 
 H1045  H    -0.323857      0.380336     -0.439097 
 H1046  H    -0.073856      0.369664     -0.310903 
 H1047  H    -0.176144      0.380336     -0.060903 
 H1048  H    -0.130336      0.310903     -0.426144 
 H1049  H    -0.189097      0.073856     -0.130336 
 H1050  H    -0.119664      0.439097     -0.176144 
 H1051  H    -0.119664      0.060903     -0.323857 
 H1052  H    -0.439097      0.176143     -0.119664 
 H1053  H    -0.310903      0.426144     -0.130336 
 H1054  H    -0.130336      0.189097     -0.073856 
 H1055  H    -0.060903      0.323856     -0.119664 
 H1056  H    -0.202926      0.297074     -0.027039 
 H1057  H    -0.047074      0.452926     -0.277039 
 H1058  H    -0.452926      0.452926     -0.222960 
 H1059  H    -0.047074      0.047074     -0.222961 
 H1060  H    -0.027039      0.297074     -0.202926 
 H1061  H    -0.202926      0.472961     -0.202926 
 H1062  H    -0.222961      0.452926     -0.452926 
 H1063  H    -0.047074      0.222961     -0.047074 
 H1064  H    -0.277039      0.452926     -0.047074 
 H1065  H    -0.297074      0.027039     -0.202926 
 H1066  H    -0.222960      0.047074     -0.047074 
 H1067  H    -0.202926      0.027039     -0.297074 
 H1068  H    -0.380336      0.323857     -0.439097 
 H1069  H    -0.369664      0.426144     -0.189097 
 H1070  H    -0.380336      0.176143     -0.060903 
 H1071  H    -0.369664      0.073856     -0.310903 
 H1072  H    -0.439097      0.119664     -0.176144 
 H1073  H    -0.176143      0.060903     -0.380336 
 H1074  H    -0.310903      0.130336     -0.426144 
 H1075  H    -0.073856      0.310903     -0.369664 
 H1076  H    -0.189097      0.130336     -0.073856 
 H1077  H    -0.323856      0.439097     -0.380336 
 H1078  H    -0.060903      0.119664     -0.323857 
 H1079  H    -0.426143      0.189097     -0.369664 
 H1080  H    -0.176143      0.119664     -0.439097 
 H1081  H    -0.073856      0.130336     -0.189097 
 H1082  H    -0.323857      0.119664     -0.060903 
 H1083  H    -0.426143      0.130336     -0.310903 
 H1084  H    -0.380336      0.060903     -0.176144 
 H1085  H    -0.439097      0.323857     -0.380336 
 H1086  H    -0.369664      0.189097     -0.426144 
 H1087  H    -0.369664      0.310903     -0.073856 
 H1088  H    -0.189097      0.426144     -0.369664 
 H1089  H    -0.060903      0.176143     -0.380336 
 H1090  H    -0.380336      0.439097     -0.323857 
 H1091  H    -0.310903      0.073856     -0.369664 
 H1092  H    -0.452926      0.047074     -0.277039 
 H1093  H    -0.297074      0.202926     -0.027039 
 H1094  H    -0.202927      0.202927     -0.472961 
 H1095  H    -0.297073      0.297073     -0.472961 
 H1096  H    -0.277040      0.047074     -0.452926 
 H1097  H    -0.452926      0.222960     -0.452926 
 H1098  H    -0.472961      0.202927     -0.202927 
 H1099  H    -0.297074      0.472961     -0.297074 
 H1100  H    -0.027040      0.202926     -0.297074 
 H1101  H    -0.047074      0.277040     -0.452926 
 H1102  H    -0.472961      0.297073     -0.297073 
 H1103  H    -0.452926      0.277040     -0.047074 
 C1104  C    -0.153970      0.052687     -0.182995 
 C1105  C    -0.096030      0.197313     -0.432995 
 C1106  C    -0.153970      0.447313     -0.317005 
 C1107  C    -0.096030      0.302687     -0.067005 
 C1108  C    -0.182995      0.346030     -0.447313 
 C1109  C    -0.447313      0.317005     -0.153970 
 C1110  C    -0.067005      0.403970     -0.197313 
 C1111  C    -0.302687      0.067005     -0.096030 
 C1112  C    -0.432995      0.403970     -0.302687 
 C1113  C    -0.052686      0.182994     -0.153970 
 C1114  C    -0.317005      0.346030     -0.052687 
 C1115  C    -0.197313      0.432995     -0.096030 
 C1116  C    -0.447313      0.346030     -0.182995 
 C1117  C    -0.302687      0.403970     -0.432995 
 C1118  C    -0.052686      0.346030     -0.317005 
 C1119  C    -0.197313      0.403970     -0.067005 
 C1120  C    -0.153970      0.317005     -0.447313 
 C1121  C    -0.182995      0.052687     -0.153970 
 C1122  C    -0.096030      0.432995     -0.197313 
 C1123  C    -0.096030      0.067005     -0.302687 
 C1124  C    -0.432995      0.197313     -0.096030 
 C1125  C    -0.317005      0.447313     -0.153970 
 C1126  C    -0.153970      0.182994     -0.052686 
 C1127  C    -0.067005      0.302687     -0.096030 
 C1128  C    -0.190797      0.000390     -0.190797 
 C1129  C    -0.309203      0.499610     -0.190797 
 C1130  C    -0.190797      0.499610     -0.309203 
 C1131  C    -0.059203      0.250390     -0.059203 
 C1132  C    -0.190797      0.309203     -0.499610 
 C1133  C    -0.499610      0.309203     -0.190797 
 C1134  C    -0.059203      0.440797     -0.249610 
 C1135  C    -0.250390      0.059203     -0.059203 
 C1136  C    -0.440797      0.440797     -0.250390 
 C1137  C    -0.250390      0.440797     -0.440797 
 C1138  C    -0.059203      0.059203     -0.250390 
 C1139  C    -0.249610      0.440797     -0.059203 
 C1140  C    -0.403971      0.302687     -0.432995 
 C1141  C    -0.346030      0.447313     -0.182995 
 C1142  C    -0.403970      0.197313     -0.067005 
 C1143  C    -0.346030      0.052687     -0.317005 
 C1144  C    -0.432995      0.096030     -0.197313 
 C1145  C    -0.197313      0.067005     -0.403970 
 C1146  C    -0.317005      0.153970     -0.447313 
 C1147  C    -0.052686      0.317006     -0.346030 
 C1148  C    -0.182994      0.153970     -0.052686 
 C1149  C    -0.302687      0.432995     -0.403970 
 C1150  C    -0.067005      0.096030     -0.302687 
 C1151  C    -0.447313      0.182995     -0.346030 
 C1152  C    -0.197313      0.096030     -0.432995 
 C1153  C    -0.052687      0.153970     -0.182995 
 C1154  C    -0.302687      0.096030     -0.067005 
 C1155  C    -0.447313      0.153970     -0.317005 
 C1156  C    -0.403970      0.067005     -0.197313 
 C1157  C    -0.432995      0.302687     -0.403970 
 C1158  C    -0.346030      0.182995     -0.447313 
 C1159  C    -0.346030      0.317006     -0.052686 
 C1160  C    -0.182995      0.447313     -0.346030 
 C1161  C    -0.067005      0.197313     -0.403970 
 C1162  C    -0.403970      0.432995     -0.302687 
 C1163  C    -0.317005      0.052687     -0.346030 
 C1164  C    -0.440797      0.250390     -0.440797 
 C1165  C    -0.059204      0.249610     -0.440797 
 C1166  C    -0.440797      0.249610     -0.059203 
 C1167  C    -0.309203      0.000390     -0.309203 
 C1168  C    -0.440797      0.059203     -0.249610 
 C1169  C    -0.249610      0.059204     -0.440797 
 C1170  C    -0.309203      0.190797     -0.499610 
 C1171  C    -0.000390      0.309203     -0.309203 
 C1172  C    -0.190797      0.190797     -0.000390 
 C1173  C    -0.000390      0.190797     -0.190797 
 C1174  C    -0.309203      0.309203     -0.000390 
 C1175  C    -0.499610      0.190797     -0.309203 
 N1176  N    -0.159173      0.019396     -0.206226 
 N1177  N    -0.090827      0.230604     -0.456226 
 N1178  N    -0.159173      0.480604     -0.293774 
 N1179  N    -0.090827      0.269396     -0.043774 
 N1180  N    -0.206225      0.340827     -0.480604 
 N1181  N    -0.480604      0.293774     -0.159173 
 N1182  N    -0.043774      0.409173     -0.230604 
 N1183  N    -0.269396      0.043775     -0.090827 
 N1184  N    -0.456226      0.409173     -0.269396 
 N1185  N    -0.019396      0.206226     -0.159173 
 N1186  N    -0.293774      0.340827     -0.019396 
 N1187  N    -0.230604      0.456226     -0.090827 
 N1188  N    -0.480604      0.340827     -0.206226 
 N1189  N    -0.269396      0.409173     -0.456226 
 N1190  N    -0.019396      0.340827     -0.293774 
 N1191  N    -0.230604      0.409173     -0.043774 
 N1192  N    -0.159173      0.293775     -0.480604 
 N1193  N    -0.206226      0.019396     -0.159173 
 N1194  N    -0.090827      0.456226     -0.230604 
 N1195  N    -0.090827      0.043774     -0.269396 
 N1196  N    -0.456225      0.230604     -0.090827 
 N1197  N    -0.293774      0.480604     -0.159173 
 N1198  N    -0.159173      0.206226     -0.019396 
 N1199  N    -0.043775      0.269396     -0.090827 
 N1200  N    -0.409173      0.269396     -0.456226 
 N1201  N    -0.340827      0.480604     -0.206225 
 N1202  N    -0.409173      0.230604     -0.043775 
 N1203  N    -0.340827      0.019396     -0.293774 
 N1204  N    -0.456226      0.090827     -0.230604 
 N1205  N    -0.230604      0.043775     -0.409173 
 N1206  N    -0.293774      0.159173     -0.480604 
 N1207  N    -0.019396      0.293774     -0.340827 
 N1208  N    -0.206226      0.159173     -0.019396 
 N1209  N    -0.269396      0.456225     -0.409173 
 N1210  N    -0.043775      0.090827     -0.269396 
 N1211  N    -0.480604      0.206225     -0.340827 
 N1212  N    -0.230604      0.090827     -0.456226 
 N1213  N    -0.019396      0.159173     -0.206226 
 N1214  N    -0.269396      0.090827     -0.043775 
 N1215  N    -0.480604      0.159173     -0.293775 
 N1216  N    -0.409173      0.043774     -0.230604 
 N1217  N    -0.456226      0.269396     -0.409173 
 N1218  N    -0.340827      0.206226     -0.480604 
 N1219  N    -0.340827      0.293774     -0.019396 
 N1220  N    -0.206226      0.480604     -0.340827 
 N1221  N    -0.043775      0.230604     -0.409173 
 N1222  N    -0.409173      0.456225     -0.269396 
 N1223  N    -0.293775      0.019396     -0.340827 
 Zn1224  Zn     0.375000      0.500000     -0.250000 
 Zn1225  Zn     0.375000     -0.250000      0.500000 
 Zn1226  Zn     0.250000     -0.125000      0.500000 
 Zn1227  Zn     0.000000     -0.250000     -0.125000 
 Zn1228  Zn     0.000000     -0.125000     -0.250000 
 Zn1229  Zn     0.250000     -0.500000     -0.125000 
 Zn1230  Zn     0.125000     -0.250000      0.500000 
 Zn1231  Zn     0.125000      0.500000     -0.250000 
 Zn1232  Zn    -0.000000     -0.375000     -0.250000 
 Zn1233  Zn     0.250000     -0.500000     -0.375000 
 Zn1234  Zn     0.250000     -0.375000      0.500000 
 Zn1235  Zn    -0.000000     -0.250000     -0.375000 
 H1236  H     0.369664     -0.426144     -0.189097 
 H1237  H     0.380336     -0.323857     -0.439097 
 H1238  H     0.369664     -0.073856     -0.310903 
 H1239  H     0.380336     -0.176143     -0.060903 
 H1240  H     0.310903     -0.130336     -0.426144 
 H1241  H     0.073856     -0.189097     -0.130336 
 H1242  H     0.439097     -0.119664     -0.176144 
 H1243  H     0.176143     -0.439097     -0.119664 
 H1244  H     0.060903     -0.119664     -0.323857 
 H1245  H     0.426144     -0.310903     -0.130336 
 H1246  H     0.189097     -0.130336     -0.073856 
 H1247  H     0.323856     -0.060903     -0.119664 
 H1248  H     0.073856     -0.130336     -0.189097 
 H1249  H     0.176143     -0.119664     -0.439097 
 H1250  H     0.426144     -0.130336     -0.310903 
 H1251  H     0.323856     -0.119664     -0.060903 
 H1252  H     0.369664     -0.189097     -0.426144 
 H1253  H     0.310903     -0.426144     -0.130336 
 H1254  H     0.380336     -0.060903     -0.176144 
 H1255  H     0.380336     -0.439097     -0.323857 
 H1256  H     0.060903     -0.323857     -0.119664 
 H1257  H     0.189097     -0.073856     -0.130336 
 H1258  H     0.369664     -0.310903     -0.073856 
 H1259  H     0.439097     -0.176144     -0.119664 
 H1260  H     0.297074     -0.202926     -0.027039 
 H1261  H     0.452926     -0.047074     -0.277039 
 H1262  H     0.047074     -0.047074     -0.222960 
 H1263  H     0.452926     -0.452926     -0.222961 
 H1264  H     0.472961     -0.202926     -0.202926 
 H1265  H     0.297074     -0.027039     -0.202926 
 H1266  H     0.277039     -0.047074     -0.452926 
 H1267  H     0.452926     -0.277039     -0.047074 
 H1268  H     0.222961     -0.047074     -0.047074 
 H1269  H     0.202926     -0.472961     -0.202926 
 H1270  H     0.277040     -0.452926     -0.047074 
 H1271  H     0.297074     -0.472961     -0.297074 
 H1272  H     0.119664     -0.176143     -0.439097 
 H1273  H     0.130336     -0.073856     -0.189097 
 H1274  H     0.119664     -0.323857     -0.060903 
 H1275  H     0.130336     -0.426144     -0.310903 
 H1276  H     0.060903     -0.380336     -0.176144 
 H1277  H     0.323857     -0.439097     -0.380336 
 H1278  H     0.189097     -0.369664     -0.426144 
 H1279  H     0.426144     -0.189097     -0.369664 
 H1280  H     0.310903     -0.369664     -0.073856 
 H1281  H     0.176144     -0.060903     -0.380336 
 H1282  H     0.439097     -0.380336     -0.323857 
 H1283  H     0.073857     -0.310903     -0.369664 
 H1284  H     0.323857     -0.380336     -0.439097 
 H1285  H     0.426144     -0.369664     -0.189097 
 H1286  H     0.176143     -0.380336     -0.060903 
 H1287  H     0.073857     -0.369664     -0.310903 
 H1288  H     0.119664     -0.439097     -0.176144 
 H1289  H     0.060903     -0.176143     -0.380336 
 H1290  H     0.130336     -0.310903     -0.426144 
 H1291  H     0.130336     -0.189097     -0.073856 
 H1292  H     0.310903     -0.073856     -0.369664 
 H1293  H     0.439097     -0.323857     -0.380336 
 H1294  H     0.119664     -0.060903     -0.323857 
 H1295  H     0.189097     -0.426144     -0.369664 
 H1296  H     0.047074     -0.452926     -0.277039 
 H1297  H     0.202926     -0.297074     -0.027039 
 H1298  H     0.297073     -0.297073     -0.472961 
 H1299  H     0.202927     -0.202927     -0.472961 
 H1300  H     0.222960     -0.452926     -0.452926 
 H1301  H     0.047074     -0.277040     -0.452926 
 H1302  H     0.027039     -0.297073     -0.202927 
 H1303  H     0.202926     -0.027039     -0.297074 
 H1304  H     0.472960     -0.297074     -0.297074 
 H1305  H     0.452926     -0.222960     -0.452926 
 H1306  H     0.027039     -0.202927     -0.297073 
 H1307  H     0.047074     -0.222960     -0.047074 
 C1308  C     0.346030     -0.447313     -0.182995 
 C1309  C     0.403970     -0.302687     -0.432995 
 C1310  C     0.346030     -0.052687     -0.317005 
 C1311  C     0.403970     -0.197313     -0.067005 
 C1312  C     0.317005     -0.153970     -0.447313 
 C1313  C     0.052687     -0.182995     -0.153970 
 C1314  C     0.432995     -0.096030     -0.197313 
 C1315  C     0.197313     -0.432995     -0.096030 
 C1316  C     0.067005     -0.096030     -0.302687 
 C1317  C     0.447314     -0.317006     -0.153970 
 C1318  C     0.182995     -0.153970     -0.052687 
 C1319  C     0.302687     -0.067005     -0.096030 
 C1320  C     0.052687     -0.153970     -0.182995 
 C1321  C     0.197313     -0.096030     -0.432995 
 C1322  C     0.447314     -0.153970     -0.317005 
 C1323  C     0.302687     -0.096030     -0.067005 
 C1324  C     0.346030     -0.182995     -0.447313 
 C1325  C     0.317005     -0.447313     -0.153970 
 C1326  C     0.403970     -0.067005     -0.197313 
 C1327  C     0.403970     -0.432995     -0.302687 
 C1328  C     0.067005     -0.302687     -0.096030 
 C1329  C     0.182995     -0.052687     -0.153970 
 C1330  C     0.346030     -0.317006     -0.052686 
 C1331  C     0.432995     -0.197313     -0.096030 
 C1332  C     0.309203     -0.499610     -0.190797 
 C1333  C     0.190797     -0.000390     -0.190797 
 C1334  C     0.309203     -0.000390     -0.309203 
 C1335  C     0.440797     -0.249610     -0.059203 
 C1336  C     0.309203     -0.190797     -0.499610 
 C1337  C     0.000390     -0.190797     -0.190797 
 C1338  C     0.440797     -0.059203     -0.249610 
 C1339  C     0.249610     -0.440797     -0.059203 
 C1340  C     0.059203     -0.059203     -0.250390 
 C1341  C     0.249610     -0.059203     -0.440797 
 C1342  C     0.440797     -0.440797     -0.250390 
 C1343  C     0.250390     -0.059203     -0.059203 
 C1344  C     0.096029     -0.197313     -0.432995 
 C1345  C     0.153970     -0.052687     -0.182995 
 C1346  C     0.096030     -0.302687     -0.067005 
 C1347  C     0.153970     -0.447313     -0.317005 
 C1348  C     0.067005     -0.403970     -0.197313 
 C1349  C     0.302687     -0.432995     -0.403970 
 C1350  C     0.182995     -0.346030     -0.447313 
 C1351  C     0.447314     -0.182994     -0.346030 
 C1352  C     0.317006     -0.346030     -0.052686 
 C1353  C     0.197313     -0.067005     -0.403970 
 C1354  C     0.432995     -0.403970     -0.302687 
 C1355  C     0.052687     -0.317005     -0.346030 
 C1356  C     0.302687     -0.403970     -0.432995 
 C1357  C     0.447313     -0.346030     -0.182995 
 C1358  C     0.197313     -0.403970     -0.067005 
 C1359  C     0.052687     -0.346030     -0.317005 
 C1360  C     0.096030     -0.432995     -0.197313 
 C1361  C     0.067005     -0.197313     -0.403970 
 C1362  C     0.153970     -0.317005     -0.447313 
 C1363  C     0.153970     -0.182994     -0.052686 
 C1364  C     0.317005     -0.052687     -0.346030 
 C1365  C     0.432995     -0.302687     -0.403970 
 C1366  C     0.096030     -0.067005     -0.302687 
 C1367  C     0.182995     -0.447313     -0.346030 
 C1368  C     0.059203     -0.249610     -0.440797 
 C1369  C     0.440796     -0.250390     -0.440797 
 C1370  C     0.059203     -0.250390     -0.059203 
 C1371  C     0.190797     -0.499610     -0.309203 
 C1372  C     0.059203     -0.440797     -0.249610 
 C1373  C     0.250390     -0.440796     -0.440797 
 C1374  C     0.190797     -0.309203     -0.499610 
 C1375  C     0.499610     -0.190797     -0.309203 
 C1376  C     0.309203     -0.309203     -0.000390 
 C1377  C     0.499610     -0.309203     -0.190797 
 C1378  C     0.190797     -0.190797     -0.000390 
 C1379  C     0.000390     -0.309203     -0.309203 
 N1380  N     0.340827     -0.480604     -0.206226 
 N1381  N     0.409173     -0.269396     -0.456226 
 N1382  N     0.340827     -0.019396     -0.293774 
 N1383  N     0.409173     -0.230604     -0.043774 
 N1384  N     0.293775     -0.159173     -0.480604 
 N1385  N     0.019396     -0.206226     -0.159173 
 N1386  N     0.456226     -0.090827     -0.230604 
 N1387  N     0.230604     -0.456225     -0.090827 
 N1388  N     0.043774     -0.090827     -0.269396 
 N1389  N     0.480604     -0.293774     -0.159173 
 N1390  N     0.206226     -0.159173     -0.019396 
 N1391  N     0.269396     -0.043774     -0.090827 
 N1392  N     0.019396     -0.159173     -0.206226 
 N1393  N     0.230604     -0.090827     -0.456226 
 N1394  N     0.480604     -0.159173     -0.293774 
 N1395  N     0.269396     -0.090827     -0.043774 
 N1396  N     0.340827     -0.206225     -0.480604 
 N1397  N     0.293774     -0.480604     -0.159173 
 N1398  N     0.409173     -0.043774     -0.230604 
 N1399  N     0.409173     -0.456226     -0.269396 
 N1400  N     0.043775     -0.269396     -0.090827 
 N1401  N     0.206226     -0.019396     -0.159173 
 N1402  N     0.340827     -0.293774     -0.019396 
 N1403  N     0.456225     -0.230604     -0.090827 
 N1404  N     0.090827     -0.230604     -0.456226 
 N1405  N     0.159173     -0.019396     -0.206225 
 N1406  N     0.090827     -0.269396     -0.043775 
 N1407  N     0.159173     -0.480604     -0.293774 
 N1408  N     0.043774     -0.409173     -0.230604 
 N1409  N     0.269396     -0.456225     -0.409173 
 N1410  N     0.206226     -0.340827     -0.480604 
 N1411  N     0.480604     -0.206226     -0.340827 
 N1412  N     0.293774     -0.340827     -0.019396 
 N1413  N     0.230604     -0.043775     -0.409173 
 N1414  N     0.456225     -0.409173     -0.269396 
 N1415  N     0.019396     -0.293775     -0.340827 
 N1416  N     0.269396     -0.409173     -0.456226 
 N1417  N     0.480604     -0.340827     -0.206226 
 N1418  N     0.230604     -0.409173     -0.043775 
 N1419  N     0.019396     -0.340827     -0.293775 
 N1420  N     0.090827     -0.456226     -0.230604 
 N1421  N     0.043774     -0.230604     -0.409173 
 N1422  N     0.159173     -0.293774     -0.480604 
 N1423  N     0.159173     -0.206226     -0.019396 
 N1424  N     0.293774     -0.019396     -0.340827 
 N1425  N     0.456225     -0.269396     -0.409173 
 N1426  N     0.090827     -0.043775     -0.269396 
 N1427  N     0.206225     -0.480604     -0.340827 
 Zn1428  Zn    -0.125000      0.500000     -0.250000 
 Zn1429  Zn    -0.125000     -0.250000      0.500000 
 Zn1430  Zn    -0.250000     -0.125000      0.500000 
 Zn1431  Zn     0.500000     -0.250000     -0.125000 
 Zn1432  Zn     0.500000     -0.125000     -0.250000 
 Zn1433  Zn    -0.250000     -0.500000     -0.125000 
 Zn1434  Zn    -0.375000     -0.250000      0.500000 
 Zn1435  Zn    -0.375000      0.500000     -0.250000 
 Zn1436  Zn     0.500000     -0.375000     -0.250000 
 Zn1437  Zn    -0.250000     -0.500000     -0.375000 
 Zn1438  Zn    -0.250000     -0.375000      0.500000 
 Zn1439  Zn     0.500000     -0.250000     -0.375000 
 H1440  H    -0.130336     -0.426144     -0.189097 
 H1441  H    -0.119664     -0.323857     -0.439097 
 H1442  H    -0.130336     -0.073856     -0.310903 
 H1443  H    -0.119664     -0.176143     -0.060903 
 H1444  H    -0.189097     -0.130336     -0.426144 
 H1445  H    -0.426144     -0.189097     -0.130336 
 H1446  H    -0.060903     -0.119664     -0.176144 
 H1447  H    -0.323857     -0.439097     -0.119664 
 H1448  H    -0.439097     -0.119664     -0.323857 
 H1449  H    -0.073856     -0.310903     -0.130336 
 H1450  H    -0.310903     -0.130336     -0.073856 
 H1451  H    -0.176144     -0.060903     -0.119664 
 H1452  H    -0.426144     -0.130336     -0.189097 
 H1453  H    -0.323857     -0.119664     -0.439097 
 H1454  H    -0.073856     -0.130336     -0.310903 
 H1455  H    -0.176144     -0.119664     -0.060903 
 H1456  H    -0.130336     -0.189097     -0.426144 
 H1457  H    -0.189097     -0.426144     -0.130336 
 H1458  H    -0.119664     -0.060903     -0.176144 
 H1459  H    -0.119664     -0.439097     -0.323857 
 H1460  H    -0.439097     -0.323857     -0.119664 
 H1461  H    -0.310903     -0.073856     -0.130336 
 H1462  H    -0.130336     -0.310903     -0.073856 
 H1463  H    -0.060903     -0.176144     -0.119664 
 H1464  H    -0.202926     -0.202926     -0.027039 
 H1465  H    -0.047074     -0.047074     -0.277039 
 H1466  H    -0.452926     -0.047074     -0.222960 
 H1467  H    -0.047074     -0.452926     -0.222961 
 H1468  H    -0.027039     -0.202926     -0.202926 
 H1469  H    -0.202926     -0.027039     -0.202926 
 H1470  H    -0.222961     -0.047074     -0.452926 
 H1471  H    -0.047074     -0.277039     -0.047074 
 H1472  H    -0.277039     -0.047074     -0.047074 
 H1473  H    -0.297074     -0.472961     -0.202926 
 H1474  H    -0.222960     -0.452926     -0.047074 
 H1475  H    -0.202926     -0.472961     -0.297074 
 H1476  H    -0.380336     -0.176143     -0.439097 
 H1477  H    -0.369664     -0.073856     -0.189097 
 H1478  H    -0.380336     -0.323857     -0.060903 
 H1479  H    -0.369664     -0.426144     -0.310903 
 H1480  H    -0.439097     -0.380336     -0.176144 
 H1481  H    -0.176143     -0.439097     -0.380336 
 H1482  H    -0.310903     -0.369664     -0.426144 
 H1483  H    -0.073856     -0.189097     -0.369664 
 H1484  H    -0.189097     -0.369664     -0.073856 
 H1485  H    -0.323856     -0.060903     -0.380336 
 H1486  H    -0.060903     -0.380336     -0.323857 
 H1487  H    -0.426143     -0.310903     -0.369664 
 H1488  H    -0.176143     -0.380336     -0.439097 
 H1489  H    -0.073856     -0.369664     -0.189097 
 H1490  H    -0.323857     -0.380336     -0.060903 
 H1491  H    -0.426143     -0.369664     -0.310903 
 H1492  H    -0.380336     -0.439097     -0.176144 
 H1493  H    -0.439097     -0.176143     -0.380336 
 H1494  H    -0.369664     -0.310903     -0.426144 
 H1495  H    -0.369664     -0.189097     -0.073856 
 H1496  H    -0.189097     -0.073856     -0.369664 
 H1497  H    -0.060903     -0.323857     -0.380336 
 H1498  H    -0.380336     -0.060903     -0.323857 
 H1499  H    -0.310903     -0.426144     -0.369664 
 H1500  H    -0.452926     -0.452926     -0.277039 
 H1501  H    -0.297074     -0.297074     -0.027039 
 H1502  H    -0.202927     -0.297073     -0.472961 
 H1503  H    -0.297073     -0.202927     -0.472961 
 H1504  H    -0.277040     -0.452926     -0.452926 
 H1505  H    -0.452926     -0.277040     -0.452926 
 H1506  H    -0.472961     -0.297073     -0.202927 
 H1507  H    -0.297074     -0.027039     -0.297074 
 H1508  H    -0.027040     -0.297074     -0.297074 
 H1509  H    -0.047074     -0.222960     -0.452926 
 H1510  H    -0.472961     -0.202927     -0.297073 
 H1511  H    -0.452926     -0.222960     -0.047074 
 C1512  C    -0.153970     -0.447313     -0.182995 
 C1513  C    -0.096030     -0.302687     -0.432995 
 C1514  C    -0.153970     -0.052687     -0.317005 
 C1515  C    -0.096030     -0.197313     -0.067005 
 C1516  C    -0.182995     -0.153970     -0.447313 
 C1517  C    -0.447313     -0.182995     -0.153970 
 C1518  C    -0.067005     -0.096030     -0.197313 
 C1519  C    -0.302687     -0.432995     -0.096030 
 C1520  C    -0.432995     -0.096030     -0.302687 
 C1521  C    -0.052686     -0.317006     -0.153970 
 C1522  C    -0.317005     -0.153970     -0.052687 
 C1523  C    -0.197313     -0.067005     -0.096030 
 C1524  C    -0.447313     -0.153970     -0.182995 
 C1525  C    -0.302687     -0.096030     -0.432995 
 C1526  C    -0.052686     -0.153970     -0.317005 
 C1527  C    -0.197313     -0.096030     -0.067005 
 C1528  C    -0.153970     -0.182995     -0.447313 
 C1529  C    -0.182995     -0.447313     -0.153970 
 C1530  C    -0.096030     -0.067005     -0.197313 
 C1531  C    -0.096030     -0.432995     -0.302687 
 C1532  C    -0.432995     -0.302687     -0.096030 
 C1533  C    -0.317005     -0.052687     -0.153970 
 C1534  C    -0.153970     -0.317006     -0.052686 
 C1535  C    -0.067005     -0.197313     -0.096030 
 C1536  C    -0.190797     -0.499610     -0.190797 
 C1537  C    -0.309203     -0.000390     -0.190797 
 C1538  C    -0.190797     -0.000390     -0.309203 
 C1539  C    -0.059203     -0.249610     -0.059203 
 C1540  C    -0.190797     -0.190797     -0.499610 
 C1541  C    -0.499610     -0.190797     -0.190797 
 C1542  C    -0.059203     -0.059203     -0.249610 
 C1543  C    -0.250390     -0.440797     -0.059203 
 C1544  C    -0.440797     -0.059203     -0.250390 
 C1545  C    -0.250390     -0.059203     -0.440797 
 C1546  C    -0.059203     -0.440797     -0.250390 
 C1547  C    -0.249610     -0.059203     -0.059203 
 C1548  C    -0.403971     -0.197313     -0.432995 
 C1549  C    -0.346030     -0.052687     -0.182995 
 C1550  C    -0.403970     -0.302687     -0.067005 
 C1551  C    -0.346030     -0.447313     -0.317005 
 C1552  C    -0.432995     -0.403970     -0.197313 
 C1553  C    -0.197313     -0.432995     -0.403970 
 C1554  C    -0.317005     -0.346030     -0.447313 
 C1555  C    -0.052686     -0.182994     -0.346030 
 C1556  C    -0.182994     -0.346030     -0.052686 
 C1557  C    -0.302687     -0.067005     -0.403970 
 C1558  C    -0.067005     -0.403970     -0.302687 
 C1559  C    -0.447313     -0.317005     -0.346030 
 C1560  C    -0.197313     -0.403970     -0.432995 
 C1561  C    -0.052687     -0.346030     -0.182995 
 C1562  C    -0.302687     -0.403970     -0.067005 
 C1563  C    -0.447313     -0.346030     -0.317005 
 C1564  C    -0.403970     -0.432995     -0.197313 
 C1565  C    -0.432995     -0.197313     -0.403970 
 C1566  C    -0.346030     -0.317005     -0.447313 
 C1567  C    -0.346030     -0.182994     -0.052686 
 C1568  C    -0.182995     -0.052687     -0.346030 
 C1569  C    -0.067005     -0.302687     -0.403970 
 C1570  C    -0.403970     -0.067005     -0.302687 
 C1571  C    -0.317005     -0.447313     -0.346030 
 C1572  C    -0.440797     -0.249610     -0.440797 
 C1573  C    -0.059204     -0.250390     -0.440797 
 C1574  C    -0.440797     -0.250390     -0.059203 
 C1575  C    -0.309203     -0.499610     -0.309203 
 C1576  C    -0.440797     -0.440797     -0.249610 
 C1577  C    -0.249610     -0.440796     -0.440797 
 C1578  C    -0.309203     -0.309203     -0.499610 
 C1579  C    -0.000390     -0.190797     -0.309203 
 C1580  C    -0.190797     -0.309203     -0.000390 
 C1581  C    -0.000390     -0.309203     -0.190797 
 C1582  C    -0.309203     -0.190797     -0.000390 
 C1583  C    -0.499610     -0.309203     -0.309203 
 N1584  N    -0.159173     -0.480604     -0.206226 
 N1585  N    -0.090827     -0.269396     -0.456226 
 N1586  N    -0.159173     -0.019396     -0.293774 
 N1587  N    -0.090827     -0.230604     -0.043774 
 N1588  N    -0.206225     -0.159173     -0.480604 
 N1589  N    -0.480604     -0.206226     -0.159173 
 N1590  N    -0.043774     -0.090827     -0.230604 
 N1591  N    -0.269396     -0.456225     -0.090827 
 N1592  N    -0.456226     -0.090827     -0.269396 
 N1593  N    -0.019396     -0.293774     -0.159173 
 N1594  N    -0.293774     -0.159173     -0.019396 
 N1595  N    -0.230604     -0.043774     -0.090827 
 N1596  N    -0.480604     -0.159173     -0.206226 
 N1597  N    -0.269396     -0.090827     -0.456226 
 N1598  N    -0.019396     -0.159173     -0.293774 
 N1599  N    -0.230604     -0.090827     -0.043774 
 N1600  N    -0.159173     -0.206225     -0.480604 
 N1601  N    -0.206226     -0.480604     -0.159173 
 N1602  N    -0.090827     -0.043774     -0.230604 
 N1603  N    -0.090827     -0.456226     -0.269396 
 N1604  N    -0.456225     -0.269396     -0.090827 
 N1605  N    -0.293774     -0.019396     -0.159173 
 N1606  N    -0.159173     -0.293774     -0.019396 
 N1607  N    -0.043775     -0.230604     -0.090827 
 N1608  N    -0.409173     -0.230604     -0.456226 
 N1609  N    -0.340827     -0.019396     -0.206225 
 N1610  N    -0.409173     -0.269396     -0.043775 
 N1611  N    -0.340827     -0.480604     -0.293774 
 N1612  N    -0.456226     -0.409173     -0.230604 
 N1613  N    -0.230604     -0.456225     -0.409173 
 N1614  N    -0.293774     -0.340827     -0.480604 
 N1615  N    -0.019396     -0.206226     -0.340827 
 N1616  N    -0.206226     -0.340827     -0.019396 
 N1617  N    -0.269396     -0.043775     -0.409173 
 N1618  N    -0.043775     -0.409173     -0.269396 
 N1619  N    -0.480604     -0.293775     -0.340827 
 N1620  N    -0.230604     -0.409173     -0.456226 
 N1621  N    -0.019396     -0.340827     -0.206226 
 N1622  N    -0.269396     -0.409173     -0.043775 
 N1623  N    -0.480604     -0.340827     -0.293775 
 N1624  N    -0.409173     -0.456226     -0.230604 
 N1625  N    -0.456226     -0.230604     -0.409173 
 N1626  N    -0.340827     -0.293774     -0.480604 
 N1627  N    -0.340827     -0.206226     -0.019396 
 N1628  N    -0.206226     -0.019396     -0.340827 
 N1629  N    -0.043775     -0.269396     -0.409173 
 N1630  N    -0.409173     -0.043775     -0.269396 
 N1631  N    -0.293775     -0.480604     -0.340827 
loop_  
_geom_bond_atom_site_label_1  
_geom_bond_atom_site_label_2  
Zn0   N156 
Zn0   N566 
Zn0   N582 
Zn0   N175 
Zn1   N157 
Zn1   N975 
Zn1   N172 
Zn1   N994 
Zn2   N160 
Zn2   N982 
Zn2   N169 
Zn2   N987 
Zn3   N161 
Zn3   N369 
Zn3   N176 
Zn3   N383 
Zn4   N366 
Zn4   N164 
Zn4   N168 
Zn4   N374 
Zn5   N163 
Zn5   N575 
Zn5   N173 
Zn5   N585 
Zn6   N180 
Zn6   N998 
Zn6   N198 
Zn6   N1015 
Zn7   N589 
Zn7   N183 
Zn7   N196 
Zn7   N610 
Zn8   N184 
Zn8   N394 
Zn8   N397 
Zn8   N195 
Zn9   N185 
Zn9   N597 
Zn9   N608 
Zn9   N203 
Zn10   N186 
Zn10   N1004 
Zn10   N192 
Zn10   N1010 
Zn11   N391 
Zn11   N191 
Zn11   N197 
Zn11   N405 
H12   C84 
H13   C85 
H14   C86 
H15   C87 
H16   C88 
H17   C89 
H18   C90 
H19   C91 
H20   C92 
H21   C93 
H22   C94 
H23   C95 
H24   C96 
H25   C97 
H26   C98 
H27   C99 
H28   C100 
H29   C101 
H30   C102 
H31   C103 
H32   C104 
H33   C105 
H34   C106 
H35   C107 
H36   C928 
H37   C114 
H38   C116 
H39   C118 
H40   C317 
H41   C516 
H42   C117 
H43   C111 
H44   C119 
H45   C517 
H46   C115 
H47   C518 
H48   C120 
H49   C121 
H50   C122 
H51   C123 
H52   C124 
H53   C125 
H54   C126 
H55   C127 
H56   C128 
H57   C129 
H58   C130 
H59   C131 
H60   C132 
H61   C133 
H62   C134 
H63   C135 
H64   C136 
H65   C137 
H66   C138 
H67   C139 
H68   C140 
H69   C141 
H70   C142 
H71   C143 
H72   C148 
H73   C966 
H74   C968 
H75   C970 
H76   C149 
H77   C144 
H78   C357 
H79   C555 
H80   C359 
H81   C145 
H82   C355 
H83   C146 
C84   C101 
C84   N156 
C85   C141 
C85   N157 
C86   C140 
C86   N158 
C87   C107 
C87   N159 
C88   C100 
C88   N160 
C89   C96 
C89   N161 
C90   C102 
C90   N162 
C91   C134 
C91   N163 
C92   C142 
C92   N164 
C93   C133 
C93   N165 
C94   C139 
C94   N166 
C95   C99 
C95   N167 
C96   N168 
C97   C129 
C97   N169 
C98   C127 
C98   N170 
C99   N171 
C100   N172 
C101   N173 
C102   N174 
C103   C130 
C103   N175 
C104   C122 
C104   N176 
C105   C121 
C105   N177 
C106   C128 
C106   N178 
C107   N179 
C108   H449 
C108   N156 
C108   N173 
C109   H453 
C109   N177 
C109   N181 
C110   H455 
C110   N158 
C110   N200 
C111   N159 
C111   N179 
C112   H852 
C112   N160 
C112   N172 
C113   H244 
C113   N161 
C113   N168 
C114   N162 
C114   N174 
C115   N163 
C115   N194 
C116   N164 
C116   N202 
C117   N169 
C117   N189 
C118   N175 
C118   N190 
C119   N167 
C119   N171 
C120   C137 
C120   N180 
C121   N181 
C122   N182 
C123   C143 
C123   N183 
C124   C136 
C124   N184 
C125   C132 
C125   N185 
C126   C138 
C126   N186 
C127   N187 
C128   N188 
C129   N189 
C130   N190 
C131   C135 
C131   N191 
C132   N192 
C133   N193 
C134   N194 
C135   N195 
C136   N196 
C137   N197 
C138   N198 
C139   N199 
C140   N200 
C141   N201 
C142   N202 
C143   N203 
C144   N180 
C144   N197 
C145   N157 
C145   N201 
C146   N176 
C146   N182 
C147   H487 
C147   N183 
C147   N203 
C148   N184 
C148   N196 
C149   N185 
C149   N192 
C150   H889 
C150   N186 
C150   N198 
C151   H286 
C151   N170 
C151   N187 
C152   H890 
C152   N178 
C152   N188 
C153   H282 
C153   N165 
C153   N193 
C154   H891 
C154   N166 
C154   N199 
C155   H284 
C155   N191 
C155   N195 
N158   Zn408 
N159   Zn817 
N162   Zn208 
N165   Zn207 
N166   Zn818 
N167   Zn413 
N170   Zn208 
N171   Zn818 
N174   Zn408 
N177   Zn413 
N178   Zn817 
N179   Zn207 
N181   Zn415 
N182   Zn822 
N187   Zn215 
N188   Zn826 
N189   Zn417 
N190   Zn212 
N193   Zn212 
N194   Zn826 
N199   Zn822 
N200   Zn417 
N201   Zn215 
N202   Zn415 
Zn204   N360 
Zn204   N770 
Zn204   N786 
Zn204   N379 
Zn205   N361 
Zn205   N1179 
Zn205   N376 
Zn205   N1198 
Zn206   N364 
Zn206   N1186 
Zn206   N373 
Zn206   N1191 
Zn207   N365 
Zn207   N380 
Zn208   N368 
Zn208   N372 
Zn209   N367 
Zn209   N779 
Zn209   N377 
Zn209   N789 
Zn210   N384 
Zn210   N1202 
Zn210   N402 
Zn210   N1219 
Zn211   N793 
Zn211   N387 
Zn211   N400 
Zn211   N814 
Zn212   N388 
Zn212   N399 
Zn213   N389 
Zn213   N801 
Zn213   N812 
Zn213   N407 
Zn214   N390 
Zn214   N1208 
Zn214   N396 
Zn214   N1214 
Zn215   N395 
Zn215   N401 
H216   C288 
H217   C289 
H218   C290 
H219   C291 
H220   C292 
H221   C293 
H222   C294 
H223   C295 
H224   C296 
H225   C297 
H226   C298 
H227   C299 
H228   C300 
H229   C301 
H230   C302 
H231   C303 
H232   C304 
H233   C305 
H234   C306 
H235   C307 
H236   C308 
H237   C309 
H238   C310 
H239   C311 
H240   C1132 
H241   C318 
H242   C320 
H243   C322 
H245   C720 
H246   C321 
H247   C315 
H248   C323 
H249   C721 
H250   C319 
H251   C722 
H252   C324 
H253   C325 
H254   C326 
H255   C327 
H256   C328 
H257   C329 
H258   C330 
H259   C331 
H260   C332 
H261   C333 
H262   C334 
H263   C335 
H264   C336 
H265   C337 
H266   C338 
H267   C339 
H268   C340 
H269   C341 
H270   C342 
H271   C343 
H272   C344 
H273   C345 
H274   C346 
H275   C347 
H276   C352 
H277   C1170 
H278   C1172 
H279   C1174 
H280   C353 
H281   C348 
H283   C759 
H285   C349 
H287   C350 
C288   C305 
C288   N360 
C289   C345 
C289   N361 
C290   C344 
C290   N362 
C291   C311 
C291   N363 
C292   C304 
C292   N364 
C293   C300 
C293   N365 
C294   C306 
C294   N366 
C295   C338 
C295   N367 
C296   C346 
C296   N368 
C297   C337 
C297   N369 
C298   C343 
C298   N370 
C299   C303 
C299   N371 
C300   N372 
C301   C333 
C301   N373 
C302   C331 
C302   N374 
C303   N375 
C304   N376 
C305   N377 
C306   N378 
C307   C334 
C307   N379 
C308   C326 
C308   N380 
C309   C325 
C309   N381 
C310   C332 
C310   N382 
C311   N383 
C312   H653 
C312   N360 
C312   N377 
C313   H657 
C313   N381 
C313   N385 
C314   H659 
C314   N362 
C314   N404 
C315   N363 
C315   N383 
C316   H1056 
C316   N364 
C316   N376 
C317   N365 
C317   N372 
C318   N366 
C318   N378 
C319   N367 
C319   N398 
C320   N368 
C320   N406 
C321   N373 
C321   N393 
C322   N379 
C322   N394 
C323   N371 
C323   N375 
C324   C341 
C324   N384 
C325   N385 
C326   N386 
C327   C347 
C327   N387 
C328   C340 
C328   N388 
C329   C336 
C329   N389 
C330   C342 
C330   N390 
C331   N391 
C332   N392 
C333   N393 
C334   N394 
C335   C339 
C335   N395 
C336   N396 
C337   N397 
C338   N398 
C339   N399 
C340   N400 
C341   N401 
C342   N402 
C343   N403 
C344   N404 
C345   N405 
C346   N406 
C347   N407 
C348   N384 
C348   N401 
C349   N361 
C349   N405 
C350   N380 
C350   N386 
C351   H691 
C351   N387 
C351   N407 
C352   N388 
C352   N400 
C353   N389 
C353   N396 
C354   H1093 
C354   N390 
C354   N402 
C355   N374 
C355   N391 
C356   H1094 
C356   N382 
C356   N392 
C357   N369 
C357   N397 
C358   H1095 
C358   N370 
C358   N403 
C359   N395 
C359   N399 
N362   Zn612 
N363   Zn1021 
N370   Zn1022 
N371   Zn617 
N375   Zn1022 
N378   Zn612 
N381   Zn617 
N382   Zn1021 
N385   Zn619 
N386   Zn1026 
N392   Zn1030 
N393   Zn621 
N398   Zn1030 
N403   Zn1026 
N404   Zn621 
N406   Zn619 
Zn408   N564 
Zn408   N583 
Zn409   N565 
Zn409   N1383 
Zn409   N580 
Zn409   N1402 
Zn410   N568 
Zn410   N1390 
Zn410   N577 
Zn410   N1395 
Zn411   N569 
Zn411   N777 
Zn411   N584 
Zn411   N791 
Zn412   N774 
Zn412   N572 
Zn412   N576 
Zn412   N782 
Zn413   N571 
Zn413   N581 
Zn414   N588 
Zn414   N1406 
Zn414   N606 
Zn414   N1423 
Zn415   N591 
Zn415   N604 
Zn416   N592 
Zn416   N802 
Zn416   N805 
Zn416   N603 
Zn417   N593 
Zn417   N611 
Zn418   N594 
Zn418   N1412 
Zn418   N600 
Zn418   N1418 
Zn419   N799 
Zn419   N599 
Zn419   N605 
Zn419   N813 
H420   C492 
H421   C493 
H422   C494 
H423   C495 
H424   C496 
H425   C497 
H426   C498 
H427   C499 
H428   C500 
H429   C501 
H430   C502 
H431   C503 
H432   C504 
H433   C505 
H434   C506 
H435   C507 
H436   C508 
H437   C509 
H438   C510 
H439   C511 
H440   C512 
H441   C513 
H442   C514 
H443   C515 
H444   C1336 
H445   C522 
H446   C524 
H447   C526 
H448   C725 
H450   C525 
H451   C519 
H452   C527 
H454   C523 
H456   C528 
H457   C529 
H458   C530 
H459   C531 
H460   C532 
H461   C533 
H462   C534 
H463   C535 
H464   C536 
H465   C537 
H466   C538 
H467   C539 
H468   C540 
H469   C541 
H470   C542 
H471   C543 
H472   C544 
H473   C545 
H474   C546 
H475   C547 
H476   C548 
H477   C549 
H478   C550 
H479   C551 
H480   C556 
H481   C1374 
H482   C1376 
H483   C1378 
H484   C557 
H485   C552 
H486   C765 
H488   C767 
H489   C553 
H490   C763 
H491   C554 
C492   C509 
C492   N564 
C493   C549 
C493   N565 
C494   C548 
C494   N566 
C495   C515 
C495   N567 
C496   C508 
C496   N568 
C497   C504 
C497   N569 
C498   C510 
C498   N570 
C499   C542 
C499   N571 
C500   C550 
C500   N572 
C501   C541 
C501   N573 
C502   C547 
C502   N574 
C503   C507 
C503   N575 
C504   N576 
C505   C537 
C505   N577 
C506   C535 
C506   N578 
C507   N579 
C508   N580 
C509   N581 
C510   N582 
C511   C538 
C511   N583 
C512   C530 
C512   N584 
C513   C529 
C513   N585 
C514   C536 
C514   N586 
C515   N587 
C516   N564 
C516   N581 
C517   N585 
C517   N589 
C518   N566 
C518   N608 
C519   N567 
C519   N587 
C520   H1260 
C520   N568 
C520   N580 
C521   H652 
C521   N569 
C521   N576 
C522   N570 
C522   N582 
C523   N571 
C523   N602 
C524   N572 
C524   N610 
C525   N577 
C525   N597 
C526   N583 
C526   N598 
C527   N575 
C527   N579 
C528   C545 
C528   N588 
C529   N589 
C530   N590 
C531   C551 
C531   N591 
C532   C544 
C532   N592 
C533   C540 
C533   N593 
C534   C546 
C534   N594 
C535   N595 
C536   N596 
C537   N597 
C538   N598 
C539   C543 
C539   N599 
C540   N600 
C541   N601 
C542   N602 
C543   N603 
C544   N604 
C545   N605 
C546   N606 
C547   N607 
C548   N608 
C549   N609 
C550   N610 
C551   N611 
C552   N588 
C552   N605 
C553   N565 
C553   N609 
C554   N584 
C554   N590 
C555   N591 
C555   N611 
C556   N592 
C556   N604 
C557   N593 
C557   N600 
C558   H1297 
C558   N594 
C558   N606 
C559   H694 
C559   N578 
C559   N595 
C560   H1298 
C560   N586 
C560   N596 
C561   H690 
C561   N573 
C561   N601 
C562   H1299 
C562   N574 
C562   N607 
C563   H692 
C563   N599 
C563   N603 
N567   Zn1225 
N570   Zn616 
N573   Zn615 
N574   Zn1226 
N578   Zn616 
N579   Zn1226 
N586   Zn1225 
N587   Zn615 
N590   Zn1230 
N595   Zn623 
N596   Zn1234 
N598   Zn620 
N601   Zn620 
N602   Zn1234 
N607   Zn1230 
N609   Zn623 
Zn612   N768 
Zn612   N787 
Zn613   N769 
Zn613   N1587 
Zn613   N784 
Zn613   N1606 
Zn614   N772 
Zn614   N1594 
Zn614   N781 
Zn614   N1599 
Zn615   N773 
Zn615   N788 
Zn616   N776 
Zn616   N780 
Zn617   N775 
Zn617   N785 
Zn618   N792 
Zn618   N1610 
Zn618   N810 
Zn618   N1627 
Zn619   N795 
Zn619   N808 
Zn620   N796 
Zn620   N807 
Zn621   N797 
Zn621   N815 
Zn622   N798 
Zn622   N1616 
Zn622   N804 
Zn622   N1622 
Zn623   N803 
Zn623   N809 
H624   C696 
H625   C697 
H626   C698 
H627   C699 
H628   C700 
H629   C701 
H630   C702 
H631   C703 
H632   C704 
H633   C705 
H634   C706 
H635   C707 
H636   C708 
H637   C709 
H638   C710 
H639   C711 
H640   C712 
H641   C713 
H642   C714 
H643   C715 
H644   C716 
H645   C717 
H646   C718 
H647   C719 
H648   C1540 
H649   C726 
H650   C728 
H651   C730 
H654   C729 
H655   C723 
H656   C731 
H658   C727 
H660   C732 
H661   C733 
H662   C734 
H663   C735 
H664   C736 
H665   C737 
H666   C738 
H667   C739 
H668   C740 
H669   C741 
H670   C742 
H671   C743 
H672   C744 
H673   C745 
H674   C746 
H675   C747 
H676   C748 
H677   C749 
H678   C750 
H679   C751 
H680   C752 
H681   C753 
H682   C754 
H683   C755 
H684   C760 
H685   C1578 
H686   C1580 
H687   C1582 
H688   C761 
H689   C756 
H693   C757 
H695   C758 
C696   C713 
C696   N768 
C697   C753 
C697   N769 
C698   C752 
C698   N770 
C699   C719 
C699   N771 
C700   C712 
C700   N772 
C701   C708 
C701   N773 
C702   C714 
C702   N774 
C703   C746 
C703   N775 
C704   C754 
C704   N776 
C705   C745 
C705   N777 
C706   C751 
C706   N778 
C707   C711 
C707   N779 
C708   N780 
C709   C741 
C709   N781 
C710   C739 
C710   N782 
C711   N783 
C712   N784 
C713   N785 
C714   N786 
C715   C742 
C715   N787 
C716   C734 
C716   N788 
C717   C733 
C717   N789 
C718   C740 
C718   N790 
C719   N791 
C720   N768 
C720   N785 
C721   N789 
C721   N793 
C722   N770 
C722   N812 
C723   N771 
C723   N791 
C724   H1464 
C724   N772 
C724   N784 
C725   N773 
C725   N780 
C726   N774 
C726   N786 
C727   N775 
C727   N806 
C728   N776 
C728   N814 
C729   N781 
C729   N801 
C730   N787 
C730   N802 
C731   N779 
C731   N783 
C732   C749 
C732   N792 
C733   N793 
C734   N794 
C735   C755 
C735   N795 
C736   C748 
C736   N796 
C737   C744 
C737   N797 
C738   C750 
C738   N798 
C739   N799 
C740   N800 
C741   N801 
C742   N802 
C743   C747 
C743   N803 
C744   N804 
C745   N805 
C746   N806 
C747   N807 
C748   N808 
C749   N809 
C750   N810 
C751   N811 
C752   N812 
C753   N813 
C754   N814 
C755   N815 
C756   N792 
C756   N809 
C757   N769 
C757   N813 
C758   N788 
C758   N794 
C759   N795 
C759   N815 
C760   N796 
C760   N808 
C761   N797 
C761   N804 
C762   H1501 
C762   N798 
C762   N810 
C763   N782 
C763   N799 
C764   H1502 
C764   N790 
C764   N800 
C765   N777 
C765   N805 
C766   H1503 
C766   N778 
C766   N811 
C767   N803 
C767   N807 
N771   Zn1429 
N778   Zn1430 
N783   Zn1430 
N790   Zn1429 
N794   Zn1434 
N800   Zn1438 
N806   Zn1438 
N811   Zn1434 
Zn816   N972 
Zn816   N1382 
Zn816   N1398 
Zn816   N991 
Zn817   N973 
Zn817   N988 
Zn818   N976 
Zn818   N985 
Zn819   N977 
Zn819   N1185 
Zn819   N992 
Zn819   N1199 
Zn820   N1182 
Zn820   N980 
Zn820   N984 
Zn820   N1190 
Zn821   N979 
Zn821   N1391 
Zn821   N989 
Zn821   N1401 
Zn822   N996 
Zn822   N1014 
Zn823   N1405 
Zn823   N999 
Zn823   N1012 
Zn823   N1426 
Zn824   N1000 
Zn824   N1210 
Zn824   N1213 
Zn824   N1011 
Zn825   N1001 
Zn825   N1413 
Zn825   N1424 
Zn825   N1019 
Zn826   N1002 
Zn826   N1008 
Zn827   N1207 
Zn827   N1007 
Zn827   N1013 
Zn827   N1221 
H828   C900 
H829   C901 
H830   C902 
H831   C903 
H832   C904 
H833   C905 
H834   C906 
H835   C907 
H836   C908 
H837   C909 
H838   C910 
H839   C911 
H840   C912 
H841   C913 
H842   C914 
H843   C915 
H844   C916 
H845   C917 
H846   C918 
H847   C919 
H848   C920 
H849   C921 
H850   C922 
H851   C923 
H853   C930 
H854   C932 
H855   C934 
H856   C1133 
H857   C1332 
H858   C933 
H859   C927 
H860   C935 
H861   C1333 
H862   C931 
H863   C1334 
H864   C936 
H865   C937 
H866   C938 
H867   C939 
H868   C940 
H869   C941 
H870   C942 
H871   C943 
H872   C944 
H873   C945 
H874   C946 
H875   C947 
H876   C948 
H877   C949 
H878   C950 
H879   C951 
H880   C952 
H881   C953 
H882   C954 
H883   C955 
H884   C956 
H885   C957 
H886   C958 
H887   C959 
H888   C964 
H892   C965 
H893   C960 
H894   C1173 
H895   C1371 
H896   C1175 
H897   C961 
H898   C1171 
H899   C962 
C900   C917 
C900   N972 
C901   C957 
C901   N973 
C902   C956 
C902   N974 
C903   C923 
C903   N975 
C904   C916 
C904   N976 
C905   C912 
C905   N977 
C906   C918 
C906   N978 
C907   C950 
C907   N979 
C908   C958 
C908   N980 
C909   C949 
C909   N981 
C910   C955 
C910   N982 
C911   C915 
C911   N983 
C912   N984 
C913   C945 
C913   N985 
C914   C943 
C914   N986 
C915   N987 
C916   N988 
C917   N989 
C918   N990 
C919   C946 
C919   N991 
C920   C938 
C920   N992 
C921   C937 
C921   N993 
C922   C944 
C922   N994 
C923   N995 
C924   H1265 
C924   N972 
C924   N989 
C925   H1269 
C925   N993 
C925   N997 
C926   H1271 
C926   N974 
C926   N1016 
C927   N975 
C927   N995 
C928   N976 
C928   N988 
C929   H1060 
C929   N977 
C929   N984 
C930   N978 
C930   N990 
C931   N979 
C931   N1010 
C932   N980 
C932   N1018 
C933   N985 
C933   N1005 
C934   N991 
C934   N1006 
C935   N983 
C935   N987 
C936   C953 
C936   N996 
C937   N997 
C938   N998 
C939   C959 
C939   N999 
C940   C952 
C940   N1000 
C941   C948 
C941   N1001 
C942   C954 
C942   N1002 
C943   N1003 
C944   N1004 
C945   N1005 
C946   N1006 
C947   C951 
C947   N1007 
C948   N1008 
C949   N1009 
C950   N1010 
C951   N1011 
C952   N1012 
C953   N1013 
C954   N1014 
C955   N1015 
C956   N1016 
C957   N1017 
C958   N1018 
C959   N1019 
C960   N996 
C960   N1013 
C961   N973 
C961   N1017 
C962   N992 
C962   N998 
C963   H1303 
C963   N999 
C963   N1019 
C964   N1000 
C964   N1012 
C965   N1001 
C965   N1008 
C966   N1002 
C966   N1014 
C967   H1102 
C967   N986 
C967   N1003 
C968   N994 
C968   N1004 
C969   H1098 
C969   N981 
C969   N1009 
C970   N982 
C970   N1015 
C971   H1100 
C971   N1007 
C971   N1011 
N974   Zn1224 
N978   Zn1024 
N981   Zn1023 
N983   Zn1229 
N986   Zn1024 
N990   Zn1224 
N993   Zn1229 
N995   Zn1023 
N997   Zn1231 
N1003   Zn1031 
N1005   Zn1233 
N1006   Zn1028 
N1009   Zn1028 
N1016   Zn1233 
N1017   Zn1031 
N1018   Zn1231 
Zn1020   N1176 
Zn1020   N1586 
Zn1020   N1602 
Zn1020   N1195 
Zn1021   N1177 
Zn1021   N1192 
Zn1022   N1180 
Zn1022   N1189 
Zn1023   N1181 
Zn1023   N1196 
Zn1024   N1184 
Zn1024   N1188 
Zn1025   N1183 
Zn1025   N1595 
Zn1025   N1193 
Zn1025   N1605 
Zn1026   N1200 
Zn1026   N1218 
Zn1027   N1609 
Zn1027   N1203 
Zn1027   N1216 
Zn1027   N1630 
Zn1028   N1204 
Zn1028   N1215 
Zn1029   N1205 
Zn1029   N1617 
Zn1029   N1628 
Zn1029   N1223 
Zn1030   N1206 
Zn1030   N1212 
Zn1031   N1211 
Zn1031   N1217 
H1032   C1104 
H1033   C1105 
H1034   C1106 
H1035   C1107 
H1036   C1108 
H1037   C1109 
H1038   C1110 
H1039   C1111 
H1040   C1112 
H1041   C1113 
H1042   C1114 
H1043   C1115 
H1044   C1116 
H1045   C1117 
H1046   C1118 
H1047   C1119 
H1048   C1120 
H1049   C1121 
H1050   C1122 
H1051   C1123 
H1052   C1124 
H1053   C1125 
H1054   C1126 
H1055   C1127 
H1057   C1134 
H1058   C1136 
H1059   C1138 
H1061   C1536 
H1062   C1137 
H1063   C1131 
H1064   C1139 
H1065   C1537 
H1066   C1135 
H1067   C1538 
H1068   C1140 
H1069   C1141 
H1070   C1142 
H1071   C1143 
H1072   C1144 
H1073   C1145 
H1074   C1146 
H1075   C1147 
H1076   C1148 
H1077   C1149 
H1078   C1150 
H1079   C1151 
H1080   C1152 
H1081   C1153 
H1082   C1154 
H1083   C1155 
H1084   C1156 
H1085   C1157 
H1086   C1158 
H1087   C1159 
H1088   C1160 
H1089   C1161 
H1090   C1162 
H1091   C1163 
H1092   C1168 
H1096   C1169 
H1097   C1164 
H1099   C1575 
H1101   C1165 
H1103   C1166 
C1104   C1121 
C1104   N1176 
C1105   C1161 
C1105   N1177 
C1106   C1160 
C1106   N1178 
C1107   C1127 
C1107   N1179 
C1108   C1120 
C1108   N1180 
C1109   C1116 
C1109   N1181 
C1110   C1122 
C1110   N1182 
C1111   C1154 
C1111   N1183 
C1112   C1162 
C1112   N1184 
C1113   C1153 
C1113   N1185 
C1114   C1159 
C1114   N1186 
C1115   C1119 
C1115   N1187 
C1116   N1188 
C1117   C1149 
C1117   N1189 
C1118   C1147 
C1118   N1190 
C1119   N1191 
C1120   N1192 
C1121   N1193 
C1122   N1194 
C1123   C1150 
C1123   N1195 
C1124   C1142 
C1124   N1196 
C1125   C1141 
C1125   N1197 
C1126   C1148 
C1126   N1198 
C1127   N1199 
C1128   H1469 
C1128   N1176 
C1128   N1193 
C1129   H1473 
C1129   N1197 
C1129   N1201 
C1130   H1475 
C1130   N1178 
C1130   N1220 
C1131   N1179 
C1131   N1199 
C1132   N1180 
C1132   N1192 
C1133   N1181 
C1133   N1188 
C1134   N1182 
C1134   N1194 
C1135   N1183 
C1135   N1214 
C1136   N1184 
C1136   N1222 
C1137   N1189 
C1137   N1209 
C1138   N1195 
C1138   N1210 
C1139   N1187 
C1139   N1191 
C1140   C1157 
C1140   N1200 
C1141   N1201 
C1142   N1202 
C1143   C1163 
C1143   N1203 
C1144   C1156 
C1144   N1204 
C1145   C1152 
C1145   N1205 
C1146   C1158 
C1146   N1206 
C1147   N1207 
C1148   N1208 
C1149   N1209 
C1150   N1210 
C1151   C1155 
C1151   N1211 
C1152   N1212 
C1153   N1213 
C1154   N1214 
C1155   N1215 
C1156   N1216 
C1157   N1217 
C1158   N1218 
C1159   N1219 
C1160   N1220 
C1161   N1221 
C1162   N1222 
C1163   N1223 
C1164   N1200 
C1164   N1217 
C1165   N1177 
C1165   N1221 
C1166   N1196 
C1166   N1202 
C1167   H1507 
C1167   N1203 
C1167   N1223 
C1168   N1204 
C1168   N1216 
C1169   N1205 
C1169   N1212 
C1170   N1206 
C1170   N1218 
C1171   N1190 
C1171   N1207 
C1172   N1198 
C1172   N1208 
C1173   N1185 
C1173   N1213 
C1174   N1186 
C1174   N1219 
C1175   N1211 
C1175   N1215 
N1178   Zn1428 
N1187   Zn1433 
N1194   Zn1428 
N1197   Zn1433 
N1201   Zn1435 
N1209   Zn1437 
N1220   Zn1437 
N1222   Zn1435 
Zn1224   N1380 
Zn1224   N1399 
Zn1225   N1381 
Zn1225   N1396 
Zn1226   N1384 
Zn1226   N1393 
Zn1227   N1385 
Zn1227   N1593 
Zn1227   N1400 
Zn1227   N1607 
Zn1228   N1590 
Zn1228   N1388 
Zn1228   N1392 
Zn1228   N1598 
Zn1229   N1387 
Zn1229   N1397 
Zn1230   N1404 
Zn1230   N1422 
Zn1231   N1407 
Zn1231   N1420 
Zn1232   N1408 
Zn1232   N1618 
Zn1232   N1621 
Zn1232   N1419 
Zn1233   N1409 
Zn1233   N1427 
Zn1234   N1410 
Zn1234   N1416 
Zn1235   N1615 
Zn1235   N1415 
Zn1235   N1421 
Zn1235   N1629 
H1236   C1308 
H1237   C1309 
H1238   C1310 
H1239   C1311 
H1240   C1312 
H1241   C1313 
H1242   C1314 
H1243   C1315 
H1244   C1316 
H1245   C1317 
H1246   C1318 
H1247   C1319 
H1248   C1320 
H1249   C1321 
H1250   C1322 
H1251   C1323 
H1252   C1324 
H1253   C1325 
H1254   C1326 
H1255   C1327 
H1256   C1328 
H1257   C1329 
H1258   C1330 
H1259   C1331 
H1261   C1338 
H1262   C1340 
H1263   C1342 
H1264   C1541 
H1266   C1341 
H1267   C1335 
H1268   C1343 
H1270   C1339 
H1272   C1344 
H1273   C1345 
H1274   C1346 
H1275   C1347 
H1276   C1348 
H1277   C1349 
H1278   C1350 
H1279   C1351 
H1280   C1352 
H1281   C1353 
H1282   C1354 
H1283   C1355 
H1284   C1356 
H1285   C1357 
H1286   C1358 
H1287   C1359 
H1288   C1360 
H1289   C1361 
H1290   C1362 
H1291   C1363 
H1292   C1364 
H1293   C1365 
H1294   C1366 
H1295   C1367 
H1296   C1372 
H1300   C1373 
H1301   C1368 
H1302   C1581 
H1304   C1583 
H1305   C1369 
H1306   C1579 
H1307   C1370 
C1308   C1325 
C1308   N1380 
C1309   C1365 
C1309   N1381 
C1310   C1364 
C1310   N1382 
C1311   C1331 
C1311   N1383 
C1312   C1324 
C1312   N1384 
C1313   C1320 
C1313   N1385 
C1314   C1326 
C1314   N1386 
C1315   C1358 
C1315   N1387 
C1316   C1366 
C1316   N1388 
C1317   C1357 
C1317   N1389 
C1318   C1363 
C1318   N1390 
C1319   C1323 
C1319   N1391 
C1320   N1392 
C1321   C1353 
C1321   N1393 
C1322   C1351 
C1322   N1394 
C1323   N1395 
C1324   N1396 
C1325   N1397 
C1326   N1398 
C1327   C1354 
C1327   N1399 
C1328   C1346 
C1328   N1400 
C1329   C1345 
C1329   N1401 
C1330   C1352 
C1330   N1402 
C1331   N1403 
C1332   N1380 
C1332   N1397 
C1333   N1401 
C1333   N1405 
C1334   N1382 
C1334   N1424 
C1335   N1383 
C1335   N1403 
C1336   N1384 
C1336   N1396 
C1337   H1468 
C1337   N1385 
C1337   N1392 
C1338   N1386 
C1338   N1398 
C1339   N1387 
C1339   N1418 
C1340   N1388 
C1340   N1426 
C1341   N1393 
C1341   N1413 
C1342   N1399 
C1342   N1414 
C1343   N1391 
C1343   N1395 
C1344   C1361 
C1344   N1404 
C1345   N1405 
C1346   N1406 
C1347   C1367 
C1347   N1407 
C1348   C1360 
C1348   N1408 
C1349   C1356 
C1349   N1409 
C1350   C1362 
C1350   N1410 
C1351   N1411 
C1352   N1412 
C1353   N1413 
C1354   N1414 
C1355   C1359 
C1355   N1415 
C1356   N1416 
C1357   N1417 
C1358   N1418 
C1359   N1419 
C1360   N1420 
C1361   N1421 
C1362   N1422 
C1363   N1423 
C1364   N1424 
C1365   N1425 
C1366   N1426 
C1367   N1427 
C1368   N1404 
C1368   N1421 
C1369   N1381 
C1369   N1425 
C1370   N1400 
C1370   N1406 
C1371   N1407 
C1371   N1427 
C1372   N1408 
C1372   N1420 
C1373   N1409 
C1373   N1416 
C1374   N1410 
C1374   N1422 
C1375   H1510 
C1375   N1394 
C1375   N1411 
C1376   N1402 
C1376   N1412 
C1377   H1506 
C1377   N1389 
C1377   N1417 
C1378   N1390 
C1378   N1423 
C1379   H1508 
C1379   N1415 
C1379   N1419 
N1386   Zn1432 
N1389   Zn1431 
N1394   Zn1432 
N1403   Zn1431 
N1411   Zn1439 
N1414   Zn1436 
N1417   Zn1436 
N1425   Zn1439 
Zn1428   N1584 
Zn1428   N1603 
Zn1429   N1585 
Zn1429   N1600 
Zn1430   N1588 
Zn1430   N1597 
Zn1431   N1589 
Zn1431   N1604 
Zn1432   N1592 
Zn1432   N1596 
Zn1433   N1591 
Zn1433   N1601 
Zn1434   N1608 
Zn1434   N1626 
Zn1435   N1611 
Zn1435   N1624 
Zn1436   N1612 
Zn1436   N1623 
Zn1437   N1613 
Zn1437   N1631 
Zn1438   N1614 
Zn1438   N1620 
Zn1439   N1619 
Zn1439   N1625 
H1440   C1512 
H1441   C1513 
H1442   C1514 
H1443   C1515 
H1444   C1516 
H1445   C1517 
H1446   C1518 
H1447   C1519 
H1448   C1520 
H1449   C1521 
H1450   C1522 
H1451   C1523 
H1452   C1524 
H1453   C1525 
H1454   C1526 
H1455   C1527 
H1456   C1528 
H1457   C1529 
H1458   C1530 
H1459   C1531 
H1460   C1532 
H1461   C1533 
H1462   C1534 
H1463   C1535 
H1465   C1542 
H1466   C1544 
H1467   C1546 
H1470   C1545 
H1471   C1539 
H1472   C1547 
H1474   C1543 
H1476   C1548 
H1477   C1549 
H1478   C1550 
H1479   C1551 
H1480   C1552 
H1481   C1553 
H1482   C1554 
H1483   C1555 
H1484   C1556 
H1485   C1557 
H1486   C1558 
H1487   C1559 
H1488   C1560 
H1489   C1561 
H1490   C1562 
H1491   C1563 
H1492   C1564 
H1493   C1565 
H1494   C1566 
H1495   C1567 
H1496   C1568 
H1497   C1569 
H1498   C1570 
H1499   C1571 
H1500   C1576 
H1504   C1577 
H1505   C1572 
H1509   C1573 
H1511   C1574 
C1512   C1529 
C1512   N1584 
C1513   C1569 
C1513   N1585 
C1514   C1568 
C1514   N1586 
C1515   C1535 
C1515   N1587 
C1516   C1528 
C1516   N1588 
C1517   C1524 
C1517   N1589 
C1518   C1530 
C1518   N1590 
C1519   C1562 
C1519   N1591 
C1520   C1570 
C1520   N1592 
C1521   C1561 
C1521   N1593 
C1522   C1567 
C1522   N1594 
C1523   C1527 
C1523   N1595 
C1524   N1596 
C1525   C1557 
C1525   N1597 
C1526   C1555 
C1526   N1598 
C1527   N1599 
C1528   N1600 
C1529   N1601 
C1530   N1602 
C1531   C1558 
C1531   N1603 
C1532   C1550 
C1532   N1604 
C1533   C1549 
C1533   N1605 
C1534   C1556 
C1534   N1606 
C1535   N1607 
C1536   N1584 
C1536   N1601 
C1537   N1605 
C1537   N1609 
C1538   N1586 
C1538   N1628 
C1539   N1587 
C1539   N1607 
C1540   N1588 
C1540   N1600 
C1541   N1589 
C1541   N1596 
C1542   N1590 
C1542   N1602 
C1543   N1591 
C1543   N1622 
C1544   N1592 
C1544   N1630 
C1545   N1597 
C1545   N1617 
C1546   N1603 
C1546   N1618 
C1547   N1595 
C1547   N1599 
C1548   C1565 
C1548   N1608 
C1549   N1609 
C1550   N1610 
C1551   C1571 
C1551   N1611 
C1552   C1564 
C1552   N1612 
C1553   C1560 
C1553   N1613 
C1554   C1566 
C1554   N1614 
C1555   N1615 
C1556   N1616 
C1557   N1617 
C1558   N1618 
C1559   C1563 
C1559   N1619 
C1560   N1620 
C1561   N1621 
C1562   N1622 
C1563   N1623 
C1564   N1624 
C1565   N1625 
C1566   N1626 
C1567   N1627 
C1568   N1628 
C1569   N1629 
C1570   N1630 
C1571   N1631 
C1572   N1608 
C1572   N1625 
C1573   N1585 
C1573   N1629 
C1574   N1604 
C1574   N1610 
C1575   N1611 
C1575   N1631 
C1576   N1612 
C1576   N1624 
C1577   N1613 
C1577   N1620 
C1578   N1614 
C1578   N1626 
C1579   N1598 
C1579   N1615 
C1580   N1606 
C1580   N1616 
C1581   N1593 
C1581   N1621 
C1582   N1594 
C1582   N1627 
C1583   N1619 
C1583   N1623 
  
#END  
