data_ZIF8_CH3_222
_symmetry_cell_setting           triclinic 
_symmetry_space_group_name_H-M   'P 1' 
_symmetry_Int_Tables_number      1 
loop_ 
_symmetry_equiv_pos_site_id 
_symmetry_equiv_pos_as_xyz 
1 x,y,z 
_cell_length_a             34.058276        
_cell_length_b             34.058276        
_cell_length_c             34.058276        
_cell_angle_alpha          90.000000        
_cell_angle_beta           90.000000        
_cell_angle_gamma          90.000000        
loop_  
_atom_site_label   
_atom_site_type_symbol  
_atom_site_fract_x  
_atom_site_fract_y  
_atom_site_fract_z 
 Zn0  Zn     0.121733      0.250000      0.000000 
 Zn1  Zn     0.128267      0.000000      0.250000 
 Zn2  Zn     0.000000      0.250000      0.128267 
 Zn3  Zn     0.250000      0.128267      0.000000 
 Zn4  Zn     0.250000      0.000000      0.121733 
 Zn5  Zn     0.000000      0.121733      0.250000 
 Zn6  Zn     0.371733      0.000000      0.250000 
 Zn7  Zn     0.378267      0.250000      0.000000 
 Zn8  Zn     0.250000      0.000000      0.378267 
 Zn9  Zn     0.000000      0.378267      0.250000 
 Zn10  Zn     0.000000      0.250000      0.371733 
 Zn11  Zn     0.250000      0.371733      0.000000 
 H12  H     0.060871      0.175716      0.213189 
 H13  H     0.443288      0.280730      0.183259 
 H14  H     0.310871      0.074284      0.036811 
 H15  H     0.439129      0.175716      0.286811 
 H16  H     0.280730      0.183259      0.443288 
 H17  H     0.213189      0.060871      0.175716 
 H18  H     0.074284      0.036811      0.310871 
 H19  H     0.183259      0.443288      0.280730 
 H20  H     0.175716      0.286811      0.439129 
 H21  H     0.036811      0.310871      0.074284 
 H22  H     0.219270      0.183259      0.056712 
 H23  H     0.286811      0.439129      0.175716 
 H24  H     0.038250      0.218828      0.232563 
 H25  H     0.211750      0.031172      0.482563 
 H26  H     0.288250      0.031172      0.017437 
 H27  H     0.193288      0.469270      0.066741 
 H28  H     0.189129      0.074284      0.463189 
 H29  H     0.306712      0.030730      0.066741 
 H30  H     0.461750      0.218828      0.267437 
 H31  H     0.056712      0.219270      0.183259 
 H32  H     0.074284      0.463189      0.189129 
 H33  H     0.183259      0.056712      0.219270 
 H34  H     0.031172      0.017437      0.288250 
 H35  H     0.482563      0.211750      0.031172 
 H36  H     0.218828      0.267437      0.461750 
 H37  H     0.066741      0.306712      0.030730 
 H38  H     0.175716      0.213189      0.060871 
 H39  H     0.066741      0.193288      0.469270 
 H40  H     0.267437      0.461750      0.218828 
 H41  H     0.232563      0.038250      0.218828 
 H42  H     0.030730      0.066741      0.306712 
 H43  H     0.463189      0.189129      0.074284 
 H44  H     0.031172      0.482563      0.211750 
 H45  H     0.017437      0.288250      0.031172 
 H46  H     0.218828      0.232563      0.038250 
 H47  H     0.469270      0.066741      0.193288 
 H48  H     0.112711      0.173937      0.056018 
 H49  H     0.132521      0.192676      0.424555 
 H50  H     0.112711      0.326063      0.443982 
 H51  H     0.132521      0.307324      0.075445 
 H52  H     0.137289      0.076063      0.306018 
 H53  H     0.117479      0.442676      0.325445 
 H54  H     0.137289      0.423937      0.193982 
 H55  H     0.117479      0.057324      0.174555 
 H56  H     0.076063      0.306018      0.137289 
 H57  H     0.174555      0.117479      0.057324 
 H58  H     0.326063      0.443982      0.112711 
 H59  H     0.424555      0.132521      0.192676 
 H60  H     0.423937      0.193982      0.137289 
 H61  H     0.325445      0.117479      0.442676 
 H62  H     0.173937      0.056018      0.112711 
 H63  H     0.075445      0.132521      0.307324 
 H64  H     0.193982      0.137289      0.423937 
 H65  H     0.056018      0.112711      0.173937 
 H66  H     0.442676      0.325445      0.117479 
 H67  H     0.306018      0.137289      0.076063 
 H68  H     0.192676      0.424555      0.132521 
 H69  H     0.443982      0.112711      0.326063 
 H70  H     0.057324      0.174555      0.117479 
 H71  H     0.307324      0.075445      0.132521 
 H72  H     0.310871      0.425716      0.463189 
 H73  H     0.193288      0.030730      0.433259 
 H74  H     0.060871      0.324284      0.286811 
 H75  H     0.189129      0.425716      0.036811 
 H76  H     0.030730      0.433259      0.193288 
 H77  H     0.463189      0.310871      0.425716 
 H78  H     0.324284      0.286811      0.060871 
 H79  H     0.433259      0.193288      0.030730 
 H80  H     0.425716      0.036811      0.189129 
 H81  H     0.286811      0.060871      0.324284 
 H82  H     0.469270      0.433259      0.306712 
 H83  H     0.036811      0.189129      0.425716 
 H84  H     0.288250      0.468828      0.482563 
 H85  H     0.461750      0.281172      0.232563 
 H86  H     0.038250      0.281172      0.267437 
 H87  H     0.443288      0.219270      0.316741 
 H88  H     0.439129      0.324284      0.213189 
 H89  H     0.056712      0.280730      0.316741 
 H90  H     0.211750      0.468828      0.017437 
 H91  H     0.306712      0.469270      0.433259 
 H92  H     0.324284      0.213189      0.439129 
 H93  H     0.433259      0.306712      0.469270 
 H94  H     0.281172      0.267437      0.038250 
 H95  H     0.232563      0.461750      0.281172 
 H96  H     0.468828      0.017437      0.211750 
 H97  H     0.316741      0.056712      0.280730 
 H98  H     0.425716      0.463189      0.310871 
 H99  H     0.316741      0.443288      0.219270 
 H100  H     0.017437      0.211750      0.468828 
 H101  H     0.482563      0.288250      0.468828 
 H102  H     0.280730      0.316741      0.056712 
 H103  H     0.213189      0.439129      0.324284 
 H104  H     0.281172      0.232563      0.461750 
 H105  H     0.267437      0.038250      0.281172 
 H106  H     0.468828      0.482563      0.288250 
 H107  H     0.219270      0.316741      0.443288 
 H108  H     0.362711      0.423937      0.306018 
 H109  H     0.382521      0.442676      0.174555 
 H110  H     0.362711      0.076063      0.193982 
 H111  H     0.382521      0.057324      0.325445 
 H112  H     0.387289      0.326063      0.056018 
 H113  H     0.367479      0.192676      0.075445 
 H114  H     0.387289      0.173937      0.443982 
 H115  H     0.367479      0.307324      0.424555 
 H116  H     0.326063      0.056018      0.387289 
 H117  H     0.424555      0.367479      0.307324 
 H118  H     0.076063      0.193982      0.362711 
 H119  H     0.174555      0.382521      0.442676 
 H120  H     0.173937      0.443982      0.387289 
 H121  H     0.075445      0.367479      0.192676 
 H122  H     0.423937      0.306018      0.362711 
 H123  H     0.325445      0.382521      0.057324 
 H124  H     0.443982      0.387289      0.173937 
 H125  H     0.306018      0.362711      0.423937 
 H126  H     0.192676      0.075445      0.367479 
 H127  H     0.056018      0.387289      0.326063 
 H128  H     0.442676      0.174555      0.382521 
 H129  H     0.193982      0.362711      0.076063 
 H130  H     0.307324      0.424555      0.367479 
 H131  H     0.057324      0.325445      0.382521 
 C132  C     0.091589      0.196520      0.064972 
 C133  C     0.154739      0.185783      0.446811 
 C134  C     0.091589      0.303480      0.435028 
 C135  C     0.154739      0.314217      0.053189 
 C136  C     0.158411      0.053480      0.314972 
 C137  C     0.095261      0.435783      0.303189 
 C138  C     0.158411      0.446520      0.185028 
 C139  C     0.095261      0.064217      0.196811 
 C140  C     0.053480      0.314972      0.158411 
 C141  C     0.196811      0.095261      0.064217 
 C142  C     0.303480      0.435028      0.091589 
 C143  C     0.446811      0.154739      0.185783 
 C144  C     0.446520      0.185028      0.158411 
 C145  C     0.303189      0.095261      0.435783 
 C146  C     0.196520      0.064972      0.091589 
 C147  C     0.053189      0.154739      0.314217 
 C148  C     0.185028      0.158411      0.446520 
 C149  C     0.064972      0.091589      0.196520 
 C150  C     0.435783      0.303189      0.095261 
 C151  C     0.314972      0.158411      0.053480 
 C152  C     0.185783      0.446811      0.154739 
 C153  C     0.435028      0.091589      0.303480 
 C154  C     0.064217      0.196811      0.095261 
 C155  C     0.314217      0.053189      0.154739 
 C156  C     0.059397      0.252511      0.062858 
 C157  C     0.187142      0.190603      0.002511 
 C158  C     0.309397      0.497489      0.187142 
 C159  C     0.187142      0.309397      0.497489 
 C160  C     0.440603      0.247489      0.062858 
 C161  C     0.062858      0.440603      0.247489 
 C162  C     0.190603      0.002511      0.187142 
 C163  C     0.062858      0.059397      0.252511 
 C164  C     0.247489      0.062858      0.440603 
 C165  C     0.252511      0.062858      0.059397 
 C166  C     0.497489      0.187142      0.309397 
 C167  C     0.002511      0.187142      0.190603 
 C168  C     0.044498      0.291721      0.049102 
 C169  C     0.200898      0.205502      0.041721 
 C170  C     0.294498      0.458279      0.200898 
 C171  C     0.200898      0.294498      0.458279 
 C172  C     0.455502      0.208279      0.049102 
 C173  C     0.049102      0.455502      0.208279 
 C174  C     0.205502      0.041721      0.200898 
 C175  C     0.049102      0.044498      0.291721 
 C176  C     0.208279      0.049102      0.455502 
 C177  C     0.291721      0.049102      0.044498 
 C178  C     0.458279      0.200898      0.294498 
 C179  C     0.041721      0.200898      0.205502 
 C180  C     0.341589      0.446520      0.314972 
 C181  C     0.404739      0.435783      0.196811 
 C182  C     0.341589      0.053480      0.185028 
 C183  C     0.404739      0.064217      0.303189 
 C184  C     0.408411      0.303480      0.064972 
 C185  C     0.345261      0.185783      0.053189 
 C186  C     0.408411      0.196520      0.435028 
 C187  C     0.345261      0.314217      0.446811 
 C188  C     0.303480      0.064972      0.408411 
 C189  C     0.446811      0.345261      0.314217 
 C190  C     0.053480      0.185028      0.341589 
 C191  C     0.196811      0.404739      0.435783 
 C192  C     0.196520      0.435028      0.408411 
 C193  C     0.053189      0.345261      0.185783 
 C194  C     0.446520      0.314972      0.341589 
 C195  C     0.303189      0.404739      0.064217 
 C196  C     0.435028      0.408411      0.196520 
 C197  C     0.314972      0.341589      0.446520 
 C198  C     0.185783      0.053189      0.345261 
 C199  C     0.064972      0.408411      0.303480 
 C200  C     0.435783      0.196811      0.404739 
 C201  C     0.185028      0.341589      0.053480 
 C202  C     0.314217      0.446811      0.345261 
 C203  C     0.064217      0.303189      0.404739 
 C204  C     0.309397      0.002511      0.312858 
 C205  C     0.437142      0.440603      0.252511 
 C206  C     0.059397      0.247489      0.437142 
 C207  C     0.437142      0.059397      0.247489 
 C208  C     0.190603      0.497489      0.312858 
 C209  C     0.312858      0.190603      0.497489 
 C210  C     0.440603      0.252511      0.437142 
 C211  C     0.312858      0.309397      0.002511 
 C212  C     0.497489      0.312858      0.190603 
 C213  C     0.002511      0.312858      0.309397 
 C214  C     0.247489      0.437142      0.059397 
 C215  C     0.252511      0.437142      0.440603 
 C216  C     0.294498      0.041721      0.299102 
 C217  C     0.450898      0.455502      0.291721 
 C218  C     0.044498      0.208279      0.450898 
 C219  C     0.450898      0.044498      0.208279 
 C220  C     0.205502      0.458279      0.299102 
 C221  C     0.299102      0.205502      0.458279 
 C222  C     0.455502      0.291721      0.450898 
 C223  C     0.299102      0.294498      0.041721 
 C224  C     0.458279      0.299102      0.205502 
 C225  C     0.041721      0.299102      0.294498 
 C226  C     0.208279      0.450898      0.044498 
 C227  C     0.291721      0.450898      0.455502 
 N228  N     0.088448      0.231850      0.044737 
 N229  N     0.156170      0.205864      0.482306 
 N230  N     0.088448      0.268150      0.455263 
 N231  N     0.156170      0.294136      0.017694 
 N232  N     0.161552      0.018150      0.294737 
 N233  N     0.093830      0.455864      0.267694 
 N234  N     0.161552      0.481850      0.205263 
 N235  N     0.093830      0.044136      0.232306 
 N236  N     0.018150      0.294737      0.161552 
 N237  N     0.232306      0.093830      0.044136 
 N238  N     0.268150      0.455263      0.088448 
 N239  N     0.482306      0.156170      0.205864 
 N240  N     0.481850      0.205263      0.161552 
 N241  N     0.267694      0.093830      0.455864 
 N242  N     0.231850      0.044737      0.088448 
 N243  N     0.017694      0.156170      0.294136 
 N244  N     0.205263      0.161552      0.481850 
 N245  N     0.044737      0.088448      0.231850 
 N246  N     0.455864      0.267694      0.093830 
 N247  N     0.294737      0.161552      0.018150 
 N248  N     0.205864      0.482306      0.156170 
 N249  N     0.455263      0.088448      0.268150 
 N250  N     0.044136      0.232306      0.093830 
 N251  N     0.294136      0.017694      0.156170 
 N252  N     0.338448      0.481850      0.294737 
 N253  N     0.406170      0.455864      0.232306 
 N254  N     0.338448      0.018150      0.205263 
 N255  N     0.406170      0.044136      0.267694 
 N256  N     0.411552      0.268150      0.044737 
 N257  N     0.343830      0.205864      0.017694 
 N258  N     0.411552      0.231850      0.455263 
 N259  N     0.343830      0.294136      0.482306 
 N260  N     0.268150      0.044737      0.411552 
 N261  N     0.482306      0.343830      0.294136 
 N262  N     0.018150      0.205263      0.338448 
 N263  N     0.232306      0.406170      0.455864 
 N264  N     0.231850      0.455263      0.411552 
 N265  N     0.017694      0.343830      0.205864 
 N266  N     0.481850      0.294737      0.338448 
 N267  N     0.267694      0.406170      0.044136 
 N268  N     0.455263      0.411552      0.231850 
 N269  N     0.294737      0.338448      0.481850 
 N270  N     0.205864      0.017694      0.343830 
 N271  N     0.044737      0.411552      0.268150 
 N272  N     0.455864      0.232306      0.406170 
 N273  N     0.205263      0.338448      0.018150 
 N274  N     0.294136      0.482306      0.343830 
 N275  N     0.044136      0.267694      0.406170 
 Zn276  Zn    -0.378267      0.250000      0.000000 
 Zn277  Zn    -0.371733      0.000000      0.250000 
 Zn278  Zn     0.500000      0.250000      0.128267 
 Zn279  Zn    -0.250000      0.128267      0.000000 
 Zn280  Zn    -0.250000      0.000000      0.121733 
 Zn281  Zn     0.500000      0.121733      0.250000 
 Zn282  Zn    -0.128267      0.000000      0.250000 
 Zn283  Zn    -0.121733      0.250000      0.000000 
 Zn284  Zn    -0.250000      0.000000      0.378267 
 Zn285  Zn     0.500000      0.378267      0.250000 
 Zn286  Zn     0.500000      0.250000      0.371733 
 Zn287  Zn    -0.250000      0.371733      0.000000 
 H288  H    -0.439129      0.175716      0.213189 
 H289  H    -0.056712      0.280730      0.183259 
 H290  H    -0.189129      0.074284      0.036811 
 H291  H    -0.060871      0.175716      0.286811 
 H292  H    -0.219270      0.183259      0.443288 
 H293  H    -0.286811      0.060871      0.175716 
 H294  H    -0.425716      0.036811      0.310871 
 H295  H    -0.316741      0.443288      0.280730 
 H296  H    -0.324284      0.286811      0.439129 
 H297  H    -0.463189      0.310871      0.074284 
 H298  H    -0.280730      0.183259      0.056712 
 H299  H    -0.213189      0.439129      0.175716 
 H300  H    -0.461750      0.218828      0.232563 
 H301  H    -0.288250      0.031172      0.482563 
 H302  H    -0.211750      0.031172      0.017437 
 H303  H    -0.306712      0.469270      0.066741 
 H304  H    -0.310871      0.074284      0.463189 
 H305  H    -0.193288      0.030730      0.066741 
 H306  H    -0.038250      0.218828      0.267437 
 H307  H    -0.443288      0.219270      0.183259 
 H308  H    -0.425716      0.463189      0.189129 
 H309  H    -0.316741      0.056712      0.219270 
 H310  H    -0.468828      0.017437      0.288250 
 H311  H    -0.017437      0.211750      0.031172 
 H312  H    -0.281172      0.267437      0.461750 
 H313  H    -0.433259      0.306712      0.030730 
 H314  H    -0.324284      0.213189      0.060871 
 H315  H    -0.433259      0.193288      0.469270 
 H316  H    -0.232563      0.461750      0.218828 
 H317  H    -0.267437      0.038250      0.218828 
 H318  H    -0.469270      0.066741      0.306712 
 H319  H    -0.036811      0.189129      0.074284 
 H320  H    -0.468828      0.482563      0.211750 
 H321  H    -0.482563      0.288250      0.031172 
 H322  H    -0.281172      0.232563      0.038250 
 H323  H    -0.030730      0.066741      0.193288 
 H324  H    -0.387289      0.173937      0.056018 
 H325  H    -0.367479      0.192676      0.424555 
 H326  H    -0.387289      0.326063      0.443982 
 H327  H    -0.367479      0.307324      0.075445 
 H328  H    -0.362711      0.076063      0.306018 
 H329  H    -0.382521      0.442676      0.325445 
 H330  H    -0.362711      0.423937      0.193982 
 H331  H    -0.382521      0.057324      0.174555 
 H332  H    -0.423937      0.306018      0.137289 
 H333  H    -0.325445      0.117479      0.057324 
 H334  H    -0.173937      0.443982      0.112711 
 H335  H    -0.075445      0.132521      0.192676 
 H336  H    -0.076063      0.193982      0.137289 
 H337  H    -0.174555      0.117479      0.442676 
 H338  H    -0.326063      0.056018      0.112711 
 H339  H    -0.424555      0.132521      0.307324 
 H340  H    -0.306018      0.137289      0.423937 
 H341  H    -0.443982      0.112711      0.173937 
 H342  H    -0.057324      0.325445      0.117479 
 H343  H    -0.193982      0.137289      0.076063 
 H344  H    -0.307324      0.424555      0.132521 
 H345  H    -0.056018      0.112711      0.326063 
 H346  H    -0.442676      0.174555      0.117479 
 H347  H    -0.192676      0.075445      0.132521 
 H348  H    -0.189129      0.425716      0.463189 
 H349  H    -0.306712      0.030730      0.433259 
 H350  H    -0.439129      0.324284      0.286811 
 H351  H    -0.310871      0.425716      0.036811 
 H352  H    -0.469270      0.433259      0.193288 
 H353  H    -0.036811      0.310871      0.425716 
 H354  H    -0.175716      0.286811      0.060871 
 H355  H    -0.066741      0.193288      0.030730 
 H356  H    -0.074284      0.036811      0.189129 
 H357  H    -0.213189      0.060871      0.324284 
 H358  H    -0.030730      0.433259      0.306712 
 H359  H    -0.463189      0.189129      0.425716 
 H360  H    -0.211750      0.468828      0.482563 
 H361  H    -0.038250      0.281172      0.232563 
 H362  H    -0.461750      0.281172      0.267437 
 H363  H    -0.056712      0.219270      0.316741 
 H364  H    -0.060871      0.324284      0.213189 
 H365  H    -0.443288      0.280730      0.316741 
 H366  H    -0.288250      0.468828      0.017437 
 H367  H    -0.193288      0.469270      0.433259 
 H368  H    -0.175716      0.213189      0.439129 
 H369  H    -0.066741      0.306712      0.469270 
 H370  H    -0.218828      0.267437      0.038250 
 H371  H    -0.267437      0.461750      0.281172 
 H372  H    -0.031172      0.017437      0.211750 
 H373  H    -0.183259      0.056712      0.280730 
 H374  H    -0.074284      0.463189      0.310871 
 H375  H    -0.183259      0.443288      0.219270 
 H376  H    -0.482563      0.211750      0.468828 
 H377  H    -0.017437      0.288250      0.468828 
 H378  H    -0.219270      0.316741      0.056712 
 H379  H    -0.286811      0.439129      0.324284 
 H380  H    -0.218828      0.232563      0.461750 
 H381  H    -0.232563      0.038250      0.281172 
 H382  H    -0.031172      0.482563      0.288250 
 H383  H    -0.280730      0.316741      0.443288 
 H384  H    -0.137289      0.423937      0.306018 
 H385  H    -0.117479      0.442676      0.174555 
 H386  H    -0.137289      0.076063      0.193982 
 H387  H    -0.117479      0.057324      0.325445 
 H388  H    -0.112711      0.326063      0.056018 
 H389  H    -0.132521      0.192676      0.075445 
 H390  H    -0.112711      0.173937      0.443982 
 H391  H    -0.132521      0.307324      0.424555 
 H392  H    -0.173937      0.056018      0.387289 
 H393  H    -0.075445      0.367479      0.307324 
 H394  H    -0.423937      0.193982      0.362711 
 H395  H    -0.325445      0.382521      0.442676 
 H396  H    -0.326063      0.443982      0.387289 
 H397  H    -0.424555      0.367479      0.192676 
 H398  H    -0.076063      0.306018      0.362711 
 H399  H    -0.174555      0.382521      0.057324 
 H400  H    -0.056018      0.387289      0.173937 
 H401  H    -0.193982      0.362711      0.423937 
 H402  H    -0.307324      0.075445      0.367479 
 H403  H    -0.443982      0.387289      0.326063 
 H404  H    -0.057324      0.174555      0.382521 
 H405  H    -0.306018      0.362711      0.076063 
 H406  H    -0.192676      0.424555      0.367479 
 H407  H    -0.442676      0.325445      0.382521 
 C408  C    -0.408411      0.196520      0.064972 
 C409  C    -0.345261      0.185783      0.446811 
 C410  C    -0.408411      0.303480      0.435028 
 C411  C    -0.345261      0.314217      0.053189 
 C412  C    -0.341589      0.053480      0.314972 
 C413  C    -0.404739      0.435783      0.303189 
 C414  C    -0.341589      0.446520      0.185028 
 C415  C    -0.404739      0.064217      0.196811 
 C416  C    -0.446520      0.314972      0.158411 
 C417  C    -0.303189      0.095261      0.064217 
 C418  C    -0.196520      0.435028      0.091589 
 C419  C    -0.053189      0.154739      0.185783 
 C420  C    -0.053480      0.185028      0.158411 
 C421  C    -0.196811      0.095261      0.435783 
 C422  C    -0.303480      0.064972      0.091589 
 C423  C    -0.446811      0.154739      0.314217 
 C424  C    -0.314972      0.158411      0.446520 
 C425  C    -0.435028      0.091589      0.196520 
 C426  C    -0.064217      0.303189      0.095261 
 C427  C    -0.185028      0.158411      0.053480 
 C428  C    -0.314217      0.446811      0.154739 
 C429  C    -0.064972      0.091589      0.303480 
 C430  C    -0.435783      0.196811      0.095261 
 C431  C    -0.185783      0.053189      0.154739 
 C432  C    -0.440603      0.252511      0.062858 
 C433  C    -0.312858      0.190603      0.002511 
 C434  C    -0.190603      0.497489      0.187142 
 C435  C    -0.312858      0.309397      0.497489 
 C436  C    -0.059397      0.247489      0.062858 
 C437  C    -0.437142      0.440603      0.247489 
 C438  C    -0.309397      0.002511      0.187142 
 C439  C    -0.437142      0.059397      0.252511 
 C440  C    -0.252511      0.062858      0.440603 
 C441  C    -0.247489      0.062858      0.059397 
 C442  C    -0.002511      0.187142      0.309397 
 C443  C    -0.497489      0.187142      0.190603 
 C444  C    -0.455502      0.291721      0.049102 
 C445  C    -0.299102      0.205502      0.041721 
 C446  C    -0.205502      0.458279      0.200898 
 C447  C    -0.299102      0.294498      0.458279 
 C448  C    -0.044498      0.208279      0.049102 
 C449  C    -0.450898      0.455502      0.208279 
 C450  C    -0.294498      0.041721      0.200898 
 C451  C    -0.450898      0.044498      0.291721 
 C452  C    -0.291721      0.049102      0.455502 
 C453  C    -0.208279      0.049102      0.044498 
 C454  C    -0.041721      0.200898      0.294498 
 C455  C    -0.458279      0.200898      0.205502 
 C456  C    -0.158411      0.446520      0.314972 
 C457  C    -0.095261      0.435783      0.196811 
 C458  C    -0.158411      0.053480      0.185028 
 C459  C    -0.095261      0.064217      0.303189 
 C460  C    -0.091589      0.303480      0.064972 
 C461  C    -0.154739      0.185783      0.053189 
 C462  C    -0.091589      0.196520      0.435028 
 C463  C    -0.154739      0.314217      0.446811 
 C464  C    -0.196520      0.064972      0.408411 
 C465  C    -0.053189      0.345261      0.314217 
 C466  C    -0.446520      0.185028      0.341589 
 C467  C    -0.303189      0.404739      0.435783 
 C468  C    -0.303480      0.435028      0.408411 
 C469  C    -0.446811      0.345261      0.185783 
 C470  C    -0.053480      0.314972      0.341589 
 C471  C    -0.196811      0.404739      0.064217 
 C472  C    -0.064972      0.408411      0.196520 
 C473  C    -0.185028      0.341589      0.446520 
 C474  C    -0.314217      0.053189      0.345261 
 C475  C    -0.435028      0.408411      0.303480 
 C476  C    -0.064217      0.196811      0.404739 
 C477  C    -0.314972      0.341589      0.053480 
 C478  C    -0.185783      0.446811      0.345261 
 C479  C    -0.435783      0.303189      0.404739 
 C480  C    -0.190603      0.002511      0.312858 
 C481  C    -0.062858      0.440603      0.252511 
 C482  C    -0.440603      0.247489      0.437142 
 C483  C    -0.062858      0.059397      0.247489 
 C484  C    -0.309397      0.497489      0.312858 
 C485  C    -0.187142      0.190603      0.497489 
 C486  C    -0.059397      0.252511      0.437142 
 C487  C    -0.187142      0.309397      0.002511 
 C488  C    -0.002511      0.312858      0.190603 
 C489  C    -0.497489      0.312858      0.309397 
 C490  C    -0.252511      0.437142      0.059397 
 C491  C    -0.247489      0.437142      0.440603 
 C492  C    -0.205502      0.041721      0.299102 
 C493  C    -0.049102      0.455502      0.291721 
 C494  C    -0.455502      0.208279      0.450898 
 C495  C    -0.049102      0.044498      0.208279 
 C496  C    -0.294498      0.458279      0.299102 
 C497  C    -0.200898      0.205502      0.458279 
 C498  C    -0.044498      0.291721      0.450898 
 C499  C    -0.200898      0.294498      0.041721 
 C500  C    -0.041721      0.299102      0.205502 
 C501  C    -0.458279      0.299102      0.294498 
 C502  C    -0.291721      0.450898      0.044498 
 C503  C    -0.208279      0.450898      0.455502 
 N504  N    -0.411552      0.231850      0.044737 
 N505  N    -0.343830      0.205864      0.482306 
 N506  N    -0.411552      0.268150      0.455263 
 N507  N    -0.343830      0.294136      0.017694 
 N508  N    -0.338448      0.018150      0.294737 
 N509  N    -0.406170      0.455864      0.267694 
 N510  N    -0.338448      0.481850      0.205263 
 N511  N    -0.406170      0.044136      0.232306 
 N512  N    -0.481850      0.294737      0.161552 
 N513  N    -0.267694      0.093830      0.044136 
 N514  N    -0.231850      0.455263      0.088448 
 N515  N    -0.017694      0.156170      0.205864 
 N516  N    -0.018150      0.205263      0.161552 
 N517  N    -0.232306      0.093830      0.455864 
 N518  N    -0.268150      0.044737      0.088448 
 N519  N    -0.482306      0.156170      0.294136 
 N520  N    -0.294737      0.161552      0.481850 
 N521  N    -0.455263      0.088448      0.231850 
 N522  N    -0.044136      0.267694      0.093830 
 N523  N    -0.205263      0.161552      0.018150 
 N524  N    -0.294136      0.482306      0.156170 
 N525  N    -0.044737      0.088448      0.268150 
 N526  N    -0.455864      0.232306      0.093830 
 N527  N    -0.205864      0.017694      0.156170 
 N528  N    -0.161552      0.481850      0.294737 
 N529  N    -0.093830      0.455864      0.232306 
 N530  N    -0.161552      0.018150      0.205263 
 N531  N    -0.093830      0.044136      0.267694 
 N532  N    -0.088448      0.268150      0.044737 
 N533  N    -0.156170      0.205864      0.017694 
 N534  N    -0.088448      0.231850      0.455263 
 N535  N    -0.156170      0.294136      0.482306 
 N536  N    -0.231850      0.044737      0.411552 
 N537  N    -0.017694      0.343830      0.294136 
 N538  N    -0.481850      0.205263      0.338448 
 N539  N    -0.267694      0.406170      0.455864 
 N540  N    -0.268150      0.455263      0.411552 
 N541  N    -0.482306      0.343830      0.205864 
 N542  N    -0.018150      0.294737      0.338448 
 N543  N    -0.232306      0.406170      0.044136 
 N544  N    -0.044737      0.411552      0.231850 
 N545  N    -0.205263      0.338448      0.481850 
 N546  N    -0.294136      0.017694      0.343830 
 N547  N    -0.455263      0.411552      0.268150 
 N548  N    -0.044136      0.232306      0.406170 
 N549  N    -0.294737      0.338448      0.018150 
 N550  N    -0.205864      0.482306      0.343830 
 N551  N    -0.455864      0.267694      0.406170 
 Zn552  Zn     0.121733     -0.250000      0.000000 
 Zn553  Zn     0.128267      0.500000      0.250000 
 Zn554  Zn     0.000000     -0.250000      0.128267 
 Zn555  Zn     0.250000     -0.371733      0.000000 
 Zn556  Zn     0.250000      0.500000      0.121733 
 Zn557  Zn     0.000000     -0.378267      0.250000 
 Zn558  Zn     0.371733      0.500000      0.250000 
 Zn559  Zn     0.378267     -0.250000      0.000000 
 Zn560  Zn     0.250000      0.500000      0.378267 
 Zn561  Zn     0.000000     -0.121733      0.250000 
 Zn562  Zn     0.000000     -0.250000      0.371733 
 Zn563  Zn     0.250000     -0.128267      0.000000 
 H564  H     0.060871     -0.324284      0.213189 
 H565  H     0.443288     -0.219270      0.183259 
 H566  H     0.310871     -0.425716      0.036811 
 H567  H     0.439129     -0.324284      0.286811 
 H568  H     0.280730     -0.316741      0.443288 
 H569  H     0.213189     -0.439129      0.175716 
 H570  H     0.074284     -0.463189      0.310871 
 H571  H     0.183259     -0.056712      0.280730 
 H572  H     0.175716     -0.213189      0.439129 
 H573  H     0.036811     -0.189129      0.074284 
 H574  H     0.219270     -0.316741      0.056712 
 H575  H     0.286811     -0.060871      0.175716 
 H576  H     0.038250     -0.281172      0.232563 
 H577  H     0.211750     -0.468828      0.482563 
 H578  H     0.288250     -0.468828      0.017437 
 H579  H     0.193288     -0.030730      0.066741 
 H580  H     0.189129     -0.425716      0.463189 
 H581  H     0.306712     -0.469270      0.066741 
 H582  H     0.461750     -0.281172      0.267437 
 H583  H     0.056712     -0.280730      0.183259 
 H584  H     0.074284     -0.036811      0.189129 
 H585  H     0.183259     -0.443288      0.219270 
 H586  H     0.031172     -0.482563      0.288250 
 H587  H     0.482563     -0.288250      0.031172 
 H588  H     0.218828     -0.232563      0.461750 
 H589  H     0.066741     -0.193288      0.030730 
 H590  H     0.175716     -0.286811      0.060871 
 H591  H     0.066741     -0.306712      0.469270 
 H592  H     0.267437     -0.038250      0.218828 
 H593  H     0.232563     -0.461750      0.218828 
 H594  H     0.030730     -0.433259      0.306712 
 H595  H     0.463189     -0.310871      0.074284 
 H596  H     0.031172     -0.017437      0.211750 
 H597  H     0.017437     -0.211750      0.031172 
 H598  H     0.218828     -0.267437      0.038250 
 H599  H     0.469270     -0.433259      0.193288 
 H600  H     0.112711     -0.326063      0.056018 
 H601  H     0.132521     -0.307324      0.424555 
 H602  H     0.112711     -0.173937      0.443982 
 H603  H     0.132521     -0.192676      0.075445 
 H604  H     0.137289     -0.423937      0.306018 
 H605  H     0.117479     -0.057324      0.325445 
 H606  H     0.137289     -0.076063      0.193982 
 H607  H     0.117479     -0.442676      0.174555 
 H608  H     0.076063     -0.193982      0.137289 
 H609  H     0.174555     -0.382521      0.057324 
 H610  H     0.326063     -0.056018      0.112711 
 H611  H     0.424555     -0.367479      0.192676 
 H612  H     0.423937     -0.306018      0.137289 
 H613  H     0.325445     -0.382521      0.442676 
 H614  H     0.173937     -0.443982      0.112711 
 H615  H     0.075445     -0.367479      0.307324 
 H616  H     0.193982     -0.362711      0.423937 
 H617  H     0.056018     -0.387289      0.173937 
 H618  H     0.442676     -0.174555      0.117479 
 H619  H     0.306018     -0.362711      0.076063 
 H620  H     0.192676     -0.075445      0.132521 
 H621  H     0.443982     -0.387289      0.326063 
 H622  H     0.057324     -0.325445      0.117479 
 H623  H     0.307324     -0.424555      0.132521 
 H624  H     0.310871     -0.074284      0.463189 
 H625  H     0.193288     -0.469270      0.433259 
 H626  H     0.060871     -0.175716      0.286811 
 H627  H     0.189129     -0.074284      0.036811 
 H628  H     0.030730     -0.066741      0.193288 
 H629  H     0.463189     -0.189129      0.425716 
 H630  H     0.324284     -0.213189      0.060871 
 H631  H     0.433259     -0.306712      0.030730 
 H632  H     0.425716     -0.463189      0.189129 
 H633  H     0.286811     -0.439129      0.324284 
 H634  H     0.469270     -0.066741      0.306712 
 H635  H     0.036811     -0.310871      0.425716 
 H636  H     0.288250     -0.031172      0.482563 
 H637  H     0.461750     -0.218828      0.232563 
 H638  H     0.038250     -0.218828      0.267437 
 H639  H     0.443288     -0.280730      0.316741 
 H640  H     0.439129     -0.175716      0.213189 
 H641  H     0.056712     -0.219270      0.316741 
 H642  H     0.211750     -0.031172      0.017437 
 H643  H     0.306712     -0.030730      0.433259 
 H644  H     0.324284     -0.286811      0.439129 
 H645  H     0.433259     -0.193288      0.469270 
 H646  H     0.281172     -0.232563      0.038250 
 H647  H     0.232563     -0.038250      0.281172 
 H648  H     0.468828     -0.482563      0.211750 
 H649  H     0.316741     -0.443288      0.280730 
 H650  H     0.425716     -0.036811      0.310871 
 H651  H     0.316741     -0.056712      0.219270 
 H652  H     0.017437     -0.288250      0.468828 
 H653  H     0.482563     -0.211750      0.468828 
 H654  H     0.280730     -0.183259      0.056712 
 H655  H     0.213189     -0.060871      0.324284 
 H656  H     0.281172     -0.267437      0.461750 
 H657  H     0.267437     -0.461750      0.281172 
 H658  H     0.468828     -0.017437      0.288250 
 H659  H     0.219270     -0.183259      0.443288 
 H660  H     0.362711     -0.076063      0.306018 
 H661  H     0.382521     -0.057324      0.174555 
 H662  H     0.362711     -0.423937      0.193982 
 H663  H     0.382521     -0.442676      0.325445 
 H664  H     0.387289     -0.173937      0.056018 
 H665  H     0.367479     -0.307324      0.075445 
 H666  H     0.387289     -0.326063      0.443982 
 H667  H     0.367479     -0.192676      0.424555 
 H668  H     0.326063     -0.443982      0.387289 
 H669  H     0.424555     -0.132521      0.307324 
 H670  H     0.076063     -0.306018      0.362711 
 H671  H     0.174555     -0.117479      0.442676 
 H672  H     0.173937     -0.056018      0.387289 
 H673  H     0.075445     -0.132521      0.192676 
 H674  H     0.423937     -0.193982      0.362711 
 H675  H     0.325445     -0.117479      0.057324 
 H676  H     0.443982     -0.112711      0.173937 
 H677  H     0.306018     -0.137289      0.423937 
 H678  H     0.192676     -0.424555      0.367479 
 H679  H     0.056018     -0.112711      0.326063 
 H680  H     0.442676     -0.325445      0.382521 
 H681  H     0.193982     -0.137289      0.076063 
 H682  H     0.307324     -0.075445      0.367479 
 H683  H     0.057324     -0.174555      0.382521 
 C684  C     0.091589     -0.303480      0.064972 
 C685  C     0.154739     -0.314217      0.446811 
 C686  C     0.091589     -0.196520      0.435028 
 C687  C     0.154739     -0.185783      0.053189 
 C688  C     0.158411     -0.446520      0.314972 
 C689  C     0.095261     -0.064217      0.303189 
 C690  C     0.158411     -0.053480      0.185028 
 C691  C     0.095261     -0.435783      0.196811 
 C692  C     0.053480     -0.185028      0.158411 
 C693  C     0.196811     -0.404739      0.064217 
 C694  C     0.303480     -0.064972      0.091589 
 C695  C     0.446811     -0.345261      0.185783 
 C696  C     0.446520     -0.314972      0.158411 
 C697  C     0.303189     -0.404739      0.435783 
 C698  C     0.196520     -0.435028      0.091589 
 C699  C     0.053189     -0.345261      0.314217 
 C700  C     0.185028     -0.341589      0.446520 
 C701  C     0.064972     -0.408411      0.196520 
 C702  C     0.435783     -0.196811      0.095261 
 C703  C     0.314972     -0.341589      0.053480 
 C704  C     0.185783     -0.053189      0.154739 
 C705  C     0.435028     -0.408411      0.303480 
 C706  C     0.064217     -0.303189      0.095261 
 C707  C     0.314217     -0.446811      0.154739 
 C708  C     0.059397     -0.247489      0.062858 
 C709  C     0.187142     -0.309397      0.002511 
 C710  C     0.309397     -0.002511      0.187142 
 C711  C     0.187142     -0.190603      0.497489 
 C712  C     0.440603     -0.252511      0.062858 
 C713  C     0.062858     -0.059397      0.247489 
 C714  C     0.190603     -0.497489      0.187142 
 C715  C     0.062858     -0.440603      0.252511 
 C716  C     0.247489     -0.437142      0.440603 
 C717  C     0.252511     -0.437142      0.059397 
 C718  C     0.497489     -0.312858      0.309397 
 C719  C     0.002511     -0.312858      0.190603 
 C720  C     0.044498     -0.208279      0.049102 
 C721  C     0.200898     -0.294498      0.041721 
 C722  C     0.294498     -0.041721      0.200898 
 C723  C     0.200898     -0.205502      0.458279 
 C724  C     0.455502     -0.291721      0.049102 
 C725  C     0.049102     -0.044498      0.208279 
 C726  C     0.205502     -0.458279      0.200898 
 C727  C     0.049102     -0.455502      0.291721 
 C728  C     0.208279     -0.450898      0.455502 
 C729  C     0.291721     -0.450898      0.044498 
 C730  C     0.458279     -0.299102      0.294498 
 C731  C     0.041721     -0.299102      0.205502 
 C732  C     0.341589     -0.053480      0.314972 
 C733  C     0.404739     -0.064217      0.196811 
 C734  C     0.341589     -0.446520      0.185028 
 C735  C     0.404739     -0.435783      0.303189 
 C736  C     0.408411     -0.196520      0.064972 
 C737  C     0.345261     -0.314217      0.053189 
 C738  C     0.408411     -0.303480      0.435028 
 C739  C     0.345261     -0.185783      0.446811 
 C740  C     0.303480     -0.435028      0.408411 
 C741  C     0.446811     -0.154739      0.314217 
 C742  C     0.053480     -0.314972      0.341589 
 C743  C     0.196811     -0.095261      0.435783 
 C744  C     0.196520     -0.064972      0.408411 
 C745  C     0.053189     -0.154739      0.185783 
 C746  C     0.446520     -0.185028      0.341589 
 C747  C     0.303189     -0.095261      0.064217 
 C748  C     0.435028     -0.091589      0.196520 
 C749  C     0.314972     -0.158411      0.446520 
 C750  C     0.185783     -0.446811      0.345261 
 C751  C     0.064972     -0.091589      0.303480 
 C752  C     0.435783     -0.303189      0.404739 
 C753  C     0.185028     -0.158411      0.053480 
 C754  C     0.314217     -0.053189      0.345261 
 C755  C     0.064217     -0.196811      0.404739 
 C756  C     0.309397     -0.497489      0.312858 
 C757  C     0.437142     -0.059397      0.252511 
 C758  C     0.059397     -0.252511      0.437142 
 C759  C     0.437142     -0.440603      0.247489 
 C760  C     0.190603     -0.002511      0.312858 
 C761  C     0.312858     -0.309397      0.497489 
 C762  C     0.440603     -0.247489      0.437142 
 C763  C     0.312858     -0.190603      0.002511 
 C764  C     0.497489     -0.187142      0.190603 
 C765  C     0.002511     -0.187142      0.309397 
 C766  C     0.247489     -0.062858      0.059397 
 C767  C     0.252511     -0.062858      0.440603 
 C768  C     0.294498     -0.458279      0.299102 
 C769  C     0.450898     -0.044498      0.291721 
 C770  C     0.044498     -0.291721      0.450898 
 C771  C     0.450898     -0.455502      0.208279 
 C772  C     0.205502     -0.041721      0.299102 
 C773  C     0.299102     -0.294498      0.458279 
 C774  C     0.455502     -0.208279      0.450898 
 C775  C     0.299102     -0.205502      0.041721 
 C776  C     0.458279     -0.200898      0.205502 
 C777  C     0.041721     -0.200898      0.294498 
 C778  C     0.208279     -0.049102      0.044498 
 C779  C     0.291721     -0.049102      0.455502 
 N780  N     0.088448     -0.268150      0.044737 
 N781  N     0.156170     -0.294136      0.482306 
 N782  N     0.088448     -0.231850      0.455263 
 N783  N     0.156170     -0.205864      0.017694 
 N784  N     0.161552     -0.481850      0.294737 
 N785  N     0.093830     -0.044136      0.267694 
 N786  N     0.161552     -0.018150      0.205263 
 N787  N     0.093830     -0.455864      0.232306 
 N788  N     0.018150     -0.205263      0.161552 
 N789  N     0.232306     -0.406170      0.044136 
 N790  N     0.268150     -0.044737      0.088448 
 N791  N     0.482306     -0.343830      0.205864 
 N792  N     0.481850     -0.294737      0.161552 
 N793  N     0.267694     -0.406170      0.455864 
 N794  N     0.231850     -0.455263      0.088448 
 N795  N     0.017694     -0.343830      0.294136 
 N796  N     0.205263     -0.338448      0.481850 
 N797  N     0.044737     -0.411552      0.231850 
 N798  N     0.455864     -0.232306      0.093830 
 N799  N     0.294737     -0.338448      0.018150 
 N800  N     0.205864     -0.017694      0.156170 
 N801  N     0.455263     -0.411552      0.268150 
 N802  N     0.044136     -0.267694      0.093830 
 N803  N     0.294136     -0.482306      0.156170 
 N804  N     0.338448     -0.018150      0.294737 
 N805  N     0.406170     -0.044136      0.232306 
 N806  N     0.338448     -0.481850      0.205263 
 N807  N     0.406170     -0.455864      0.267694 
 N808  N     0.411552     -0.231850      0.044737 
 N809  N     0.343830     -0.294136      0.017694 
 N810  N     0.411552     -0.268150      0.455263 
 N811  N     0.343830     -0.205864      0.482306 
 N812  N     0.268150     -0.455263      0.411552 
 N813  N     0.482306     -0.156170      0.294136 
 N814  N     0.018150     -0.294737      0.338448 
 N815  N     0.232306     -0.093830      0.455864 
 N816  N     0.231850     -0.044737      0.411552 
 N817  N     0.017694     -0.156170      0.205864 
 N818  N     0.481850     -0.205263      0.338448 
 N819  N     0.267694     -0.093830      0.044136 
 N820  N     0.455263     -0.088448      0.231850 
 N821  N     0.294737     -0.161552      0.481850 
 N822  N     0.205864     -0.482306      0.343830 
 N823  N     0.044737     -0.088448      0.268150 
 N824  N     0.455864     -0.267694      0.406170 
 N825  N     0.205263     -0.161552      0.018150 
 N826  N     0.294136     -0.017694      0.343830 
 N827  N     0.044136     -0.232306      0.406170 
 Zn828  Zn    -0.378267     -0.250000      0.000000 
 Zn829  Zn    -0.371733      0.500000      0.250000 
 Zn830  Zn     0.500000     -0.250000      0.128267 
 Zn831  Zn    -0.250000     -0.371733      0.000000 
 Zn832  Zn    -0.250000      0.500000      0.121733 
 Zn833  Zn     0.500000     -0.378267      0.250000 
 Zn834  Zn    -0.128267      0.500000      0.250000 
 Zn835  Zn    -0.121733     -0.250000      0.000000 
 Zn836  Zn    -0.250000      0.500000      0.378267 
 Zn837  Zn     0.500000     -0.121733      0.250000 
 Zn838  Zn     0.500000     -0.250000      0.371733 
 Zn839  Zn    -0.250000     -0.128267      0.000000 
 H840  H    -0.439129     -0.324284      0.213189 
 H841  H    -0.056712     -0.219270      0.183259 
 H842  H    -0.189129     -0.425716      0.036811 
 H843  H    -0.060871     -0.324284      0.286811 
 H844  H    -0.219270     -0.316741      0.443288 
 H845  H    -0.286811     -0.439129      0.175716 
 H846  H    -0.425716     -0.463189      0.310871 
 H847  H    -0.316741     -0.056712      0.280730 
 H848  H    -0.324284     -0.213189      0.439129 
 H849  H    -0.463189     -0.189129      0.074284 
 H850  H    -0.280730     -0.316741      0.056712 
 H851  H    -0.213189     -0.060871      0.175716 
 H852  H    -0.461750     -0.281172      0.232563 
 H853  H    -0.288250     -0.468828      0.482563 
 H854  H    -0.211750     -0.468828      0.017437 
 H855  H    -0.306712     -0.030730      0.066741 
 H856  H    -0.310871     -0.425716      0.463189 
 H857  H    -0.193288     -0.469270      0.066741 
 H858  H    -0.038250     -0.281172      0.267437 
 H859  H    -0.443288     -0.280730      0.183259 
 H860  H    -0.425716     -0.036811      0.189129 
 H861  H    -0.316741     -0.443288      0.219270 
 H862  H    -0.468828     -0.482563      0.288250 
 H863  H    -0.017437     -0.288250      0.031172 
 H864  H    -0.281172     -0.232563      0.461750 
 H865  H    -0.433259     -0.193288      0.030730 
 H866  H    -0.324284     -0.286811      0.060871 
 H867  H    -0.433259     -0.306712      0.469270 
 H868  H    -0.232563     -0.038250      0.218828 
 H869  H    -0.267437     -0.461750      0.218828 
 H870  H    -0.469270     -0.433259      0.306712 
 H871  H    -0.036811     -0.310871      0.074284 
 H872  H    -0.468828     -0.017437      0.211750 
 H873  H    -0.482563     -0.211750      0.031172 
 H874  H    -0.281172     -0.267437      0.038250 
 H875  H    -0.030730     -0.433259      0.193288 
 H876  H    -0.387289     -0.326063      0.056018 
 H877  H    -0.367479     -0.307324      0.424555 
 H878  H    -0.387289     -0.173937      0.443982 
 H879  H    -0.367479     -0.192676      0.075445 
 H880  H    -0.362711     -0.423937      0.306018 
 H881  H    -0.382521     -0.057324      0.325445 
 H882  H    -0.362711     -0.076063      0.193982 
 H883  H    -0.382521     -0.442676      0.174555 
 H884  H    -0.423937     -0.193982      0.137289 
 H885  H    -0.325445     -0.382521      0.057324 
 H886  H    -0.173937     -0.056018      0.112711 
 H887  H    -0.075445     -0.367479      0.192676 
 H888  H    -0.076063     -0.306018      0.137289 
 H889  H    -0.174555     -0.382521      0.442676 
 H890  H    -0.326063     -0.443982      0.112711 
 H891  H    -0.424555     -0.367479      0.307324 
 H892  H    -0.306018     -0.362711      0.423937 
 H893  H    -0.443982     -0.387289      0.173937 
 H894  H    -0.057324     -0.174555      0.117479 
 H895  H    -0.193982     -0.362711      0.076063 
 H896  H    -0.307324     -0.075445      0.132521 
 H897  H    -0.056018     -0.387289      0.326063 
 H898  H    -0.442676     -0.325445      0.117479 
 H899  H    -0.192676     -0.424555      0.132521 
 H900  H    -0.189129     -0.074284      0.463189 
 H901  H    -0.306712     -0.469270      0.433259 
 H902  H    -0.439129     -0.175716      0.286811 
 H903  H    -0.310871     -0.074284      0.036811 
 H904  H    -0.469270     -0.066741      0.193288 
 H905  H    -0.036811     -0.189129      0.425716 
 H906  H    -0.175716     -0.213189      0.060871 
 H907  H    -0.066741     -0.306712      0.030730 
 H908  H    -0.074284     -0.463189      0.189129 
 H909  H    -0.213189     -0.439129      0.324284 
 H910  H    -0.030730     -0.066741      0.306712 
 H911  H    -0.463189     -0.310871      0.425716 
 H912  H    -0.211750     -0.031172      0.482563 
 H913  H    -0.038250     -0.218828      0.232563 
 H914  H    -0.461750     -0.218828      0.267437 
 H915  H    -0.056712     -0.280730      0.316741 
 H916  H    -0.060871     -0.175716      0.213189 
 H917  H    -0.443288     -0.219270      0.316741 
 H918  H    -0.288250     -0.031172      0.017437 
 H919  H    -0.193288     -0.030730      0.433259 
 H920  H    -0.175716     -0.286811      0.439129 
 H921  H    -0.066741     -0.193288      0.469270 
 H922  H    -0.218828     -0.232563      0.038250 
 H923  H    -0.267437     -0.038250      0.281172 
 H924  H    -0.031172     -0.482563      0.211750 
 H925  H    -0.183259     -0.443288      0.280730 
 H926  H    -0.074284     -0.036811      0.310871 
 H927  H    -0.183259     -0.056712      0.219270 
 H928  H    -0.482563     -0.288250      0.468828 
 H929  H    -0.017437     -0.211750      0.468828 
 H930  H    -0.219270     -0.183259      0.056712 
 H931  H    -0.286811     -0.060871      0.324284 
 H932  H    -0.218828     -0.267437      0.461750 
 H933  H    -0.232563     -0.461750      0.281172 
 H934  H    -0.031172     -0.017437      0.288250 
 H935  H    -0.280730     -0.183259      0.443288 
 H936  H    -0.137289     -0.076063      0.306018 
 H937  H    -0.117479     -0.057324      0.174555 
 H938  H    -0.137289     -0.423937      0.193982 
 H939  H    -0.117479     -0.442676      0.325445 
 H940  H    -0.112711     -0.173937      0.056018 
 H941  H    -0.132521     -0.307324      0.075445 
 H942  H    -0.112711     -0.326063      0.443982 
 H943  H    -0.132521     -0.192676      0.424555 
 H944  H    -0.173937     -0.443982      0.387289 
 H945  H    -0.075445     -0.132521      0.307324 
 H946  H    -0.423937     -0.306018      0.362711 
 H947  H    -0.325445     -0.117479      0.442676 
 H948  H    -0.326063     -0.056018      0.387289 
 H949  H    -0.424555     -0.132521      0.192676 
 H950  H    -0.076063     -0.193982      0.362711 
 H951  H    -0.174555     -0.117479      0.057324 
 H952  H    -0.056018     -0.112711      0.173937 
 H953  H    -0.193982     -0.137289      0.423937 
 H954  H    -0.307324     -0.424555      0.367479 
 H955  H    -0.443982     -0.112711      0.326063 
 H956  H    -0.057324     -0.325445      0.382521 
 H957  H    -0.306018     -0.137289      0.076063 
 H958  H    -0.192676     -0.075445      0.367479 
 H959  H    -0.442676     -0.174555      0.382521 
 C960  C    -0.408411     -0.303480      0.064972 
 C961  C    -0.345261     -0.314217      0.446811 
 C962  C    -0.408411     -0.196520      0.435028 
 C963  C    -0.345261     -0.185783      0.053189 
 C964  C    -0.341589     -0.446520      0.314972 
 C965  C    -0.404739     -0.064217      0.303189 
 C966  C    -0.341589     -0.053480      0.185028 
 C967  C    -0.404739     -0.435783      0.196811 
 C968  C    -0.446520     -0.185028      0.158411 
 C969  C    -0.303189     -0.404739      0.064217 
 C970  C    -0.196520     -0.064972      0.091589 
 C971  C    -0.053189     -0.345261      0.185783 
 C972  C    -0.053480     -0.314972      0.158411 
 C973  C    -0.196811     -0.404739      0.435783 
 C974  C    -0.303480     -0.435028      0.091589 
 C975  C    -0.446811     -0.345261      0.314217 
 C976  C    -0.314972     -0.341589      0.446520 
 C977  C    -0.435028     -0.408411      0.196520 
 C978  C    -0.064217     -0.196811      0.095261 
 C979  C    -0.185028     -0.341589      0.053480 
 C980  C    -0.314217     -0.053189      0.154739 
 C981  C    -0.064972     -0.408411      0.303480 
 C982  C    -0.435783     -0.303189      0.095261 
 C983  C    -0.185783     -0.446811      0.154739 
 C984  C    -0.440603     -0.247489      0.062858 
 C985  C    -0.312858     -0.309397      0.002511 
 C986  C    -0.190603     -0.002511      0.187142 
 C987  C    -0.312858     -0.190603      0.497489 
 C988  C    -0.059397     -0.252511      0.062858 
 C989  C    -0.437142     -0.059397      0.247489 
 C990  C    -0.309397     -0.497489      0.187142 
 C991  C    -0.437142     -0.440603      0.252511 
 C992  C    -0.252511     -0.437142      0.440603 
 C993  C    -0.247489     -0.437142      0.059397 
 C994  C    -0.002511     -0.312858      0.309397 
 C995  C    -0.497489     -0.312858      0.190603 
 C996  C    -0.455502     -0.208279      0.049102 
 C997  C    -0.299102     -0.294498      0.041721 
 C998  C    -0.205502     -0.041721      0.200898 
 C999  C    -0.299102     -0.205502      0.458279 
 C1000  C    -0.044498     -0.291721      0.049102 
 C1001  C    -0.450898     -0.044498      0.208279 
 C1002  C    -0.294498     -0.458279      0.200898 
 C1003  C    -0.450898     -0.455502      0.291721 
 C1004  C    -0.291721     -0.450898      0.455502 
 C1005  C    -0.208279     -0.450898      0.044498 
 C1006  C    -0.041721     -0.299102      0.294498 
 C1007  C    -0.458279     -0.299102      0.205502 
 C1008  C    -0.158411     -0.053480      0.314972 
 C1009  C    -0.095261     -0.064217      0.196811 
 C1010  C    -0.158411     -0.446520      0.185028 
 C1011  C    -0.095261     -0.435783      0.303189 
 C1012  C    -0.091589     -0.196520      0.064972 
 C1013  C    -0.154739     -0.314217      0.053189 
 C1014  C    -0.091589     -0.303480      0.435028 
 C1015  C    -0.154739     -0.185783      0.446811 
 C1016  C    -0.196520     -0.435028      0.408411 
 C1017  C    -0.053189     -0.154739      0.314217 
 C1018  C    -0.446520     -0.314972      0.341589 
 C1019  C    -0.303189     -0.095261      0.435783 
 C1020  C    -0.303480     -0.064972      0.408411 
 C1021  C    -0.446811     -0.154739      0.185783 
 C1022  C    -0.053480     -0.185028      0.341589 
 C1023  C    -0.196811     -0.095261      0.064217 
 C1024  C    -0.064972     -0.091589      0.196520 
 C1025  C    -0.185028     -0.158411      0.446520 
 C1026  C    -0.314217     -0.446811      0.345261 
 C1027  C    -0.435028     -0.091589      0.303480 
 C1028  C    -0.064217     -0.303189      0.404739 
 C1029  C    -0.314972     -0.158411      0.053480 
 C1030  C    -0.185783     -0.053189      0.345261 
 C1031  C    -0.435783     -0.196811      0.404739 
 C1032  C    -0.190603     -0.497489      0.312858 
 C1033  C    -0.062858     -0.059397      0.252511 
 C1034  C    -0.440603     -0.252511      0.437142 
 C1035  C    -0.062858     -0.440603      0.247489 
 C1036  C    -0.309397     -0.002511      0.312858 
 C1037  C    -0.187142     -0.309397      0.497489 
 C1038  C    -0.059397     -0.247489      0.437142 
 C1039  C    -0.187142     -0.190603      0.002511 
 C1040  C    -0.002511     -0.187142      0.190603 
 C1041  C    -0.497489     -0.187142      0.309397 
 C1042  C    -0.252511     -0.062858      0.059397 
 C1043  C    -0.247489     -0.062858      0.440603 
 C1044  C    -0.205502     -0.458279      0.299102 
 C1045  C    -0.049102     -0.044498      0.291721 
 C1046  C    -0.455502     -0.291721      0.450898 
 C1047  C    -0.049102     -0.455502      0.208279 
 C1048  C    -0.294498     -0.041721      0.299102 
 C1049  C    -0.200898     -0.294498      0.458279 
 C1050  C    -0.044498     -0.208279      0.450898 
 C1051  C    -0.200898     -0.205502      0.041721 
 C1052  C    -0.041721     -0.200898      0.205502 
 C1053  C    -0.458279     -0.200898      0.294498 
 C1054  C    -0.291721     -0.049102      0.044498 
 C1055  C    -0.208279     -0.049102      0.455502 
 N1056  N    -0.411552     -0.268150      0.044737 
 N1057  N    -0.343830     -0.294136      0.482306 
 N1058  N    -0.411552     -0.231850      0.455263 
 N1059  N    -0.343830     -0.205864      0.017694 
 N1060  N    -0.338448     -0.481850      0.294737 
 N1061  N    -0.406170     -0.044136      0.267694 
 N1062  N    -0.338448     -0.018150      0.205263 
 N1063  N    -0.406170     -0.455864      0.232306 
 N1064  N    -0.481850     -0.205263      0.161552 
 N1065  N    -0.267694     -0.406170      0.044136 
 N1066  N    -0.231850     -0.044737      0.088448 
 N1067  N    -0.017694     -0.343830      0.205864 
 N1068  N    -0.018150     -0.294737      0.161552 
 N1069  N    -0.232306     -0.406170      0.455864 
 N1070  N    -0.268150     -0.455263      0.088448 
 N1071  N    -0.482306     -0.343830      0.294136 
 N1072  N    -0.294737     -0.338448      0.481850 
 N1073  N    -0.455263     -0.411552      0.231850 
 N1074  N    -0.044136     -0.232306      0.093830 
 N1075  N    -0.205263     -0.338448      0.018150 
 N1076  N    -0.294136     -0.017694      0.156170 
 N1077  N    -0.044737     -0.411552      0.268150 
 N1078  N    -0.455864     -0.267694      0.093830 
 N1079  N    -0.205864     -0.482306      0.156170 
 N1080  N    -0.161552     -0.018150      0.294737 
 N1081  N    -0.093830     -0.044136      0.232306 
 N1082  N    -0.161552     -0.481850      0.205263 
 N1083  N    -0.093830     -0.455864      0.267694 
 N1084  N    -0.088448     -0.231850      0.044737 
 N1085  N    -0.156170     -0.294136      0.017694 
 N1086  N    -0.088448     -0.268150      0.455263 
 N1087  N    -0.156170     -0.205864      0.482306 
 N1088  N    -0.231850     -0.455263      0.411552 
 N1089  N    -0.017694     -0.156170      0.294136 
 N1090  N    -0.481850     -0.294737      0.338448 
 N1091  N    -0.267694     -0.093830      0.455864 
 N1092  N    -0.268150     -0.044737      0.411552 
 N1093  N    -0.482306     -0.156170      0.205864 
 N1094  N    -0.018150     -0.205263      0.338448 
 N1095  N    -0.232306     -0.093830      0.044136 
 N1096  N    -0.044737     -0.088448      0.231850 
 N1097  N    -0.205263     -0.161552      0.481850 
 N1098  N    -0.294136     -0.482306      0.343830 
 N1099  N    -0.455263     -0.088448      0.268150 
 N1100  N    -0.044136     -0.267694      0.406170 
 N1101  N    -0.294737     -0.161552      0.018150 
 N1102  N    -0.205864     -0.017694      0.343830 
 N1103  N    -0.455864     -0.232306      0.406170 
 Zn1104  Zn     0.121733      0.250000      0.500000 
 Zn1105  Zn     0.128267      0.000000     -0.250000 
 Zn1106  Zn     0.000000      0.250000     -0.371733 
 Zn1107  Zn     0.250000      0.128267      0.500000 
 Zn1108  Zn     0.250000      0.000000     -0.378267 
 Zn1109  Zn     0.000000      0.121733     -0.250000 
 Zn1110  Zn     0.371733      0.000000     -0.250000 
 Zn1111  Zn     0.378267      0.250000      0.500000 
 Zn1112  Zn     0.250000      0.000000     -0.121733 
 Zn1113  Zn     0.000000      0.378267     -0.250000 
 Zn1114  Zn     0.000000      0.250000     -0.128267 
 Zn1115  Zn     0.250000      0.371733      0.500000 
 H1116  H     0.060871      0.175716     -0.286811 
 H1117  H     0.443288      0.280730     -0.316741 
 H1118  H     0.310871      0.074284     -0.463189 
 H1119  H     0.439129      0.175716     -0.213189 
 H1120  H     0.280730      0.183259     -0.056712 
 H1121  H     0.213189      0.060871     -0.324284 
 H1122  H     0.074284      0.036811     -0.189129 
 H1123  H     0.183259      0.443288     -0.219270 
 H1124  H     0.175716      0.286811     -0.060871 
 H1125  H     0.036811      0.310871     -0.425716 
 H1126  H     0.219270      0.183259     -0.443288 
 H1127  H     0.286811      0.439129     -0.324284 
 H1128  H     0.038250      0.218828     -0.267437 
 H1129  H     0.211750      0.031172     -0.017437 
 H1130  H     0.288250      0.031172     -0.482563 
 H1131  H     0.193288      0.469270     -0.433259 
 H1132  H     0.189129      0.074284     -0.036811 
 H1133  H     0.306712      0.030730     -0.433259 
 H1134  H     0.461750      0.218828     -0.232563 
 H1135  H     0.056712      0.219270     -0.316741 
 H1136  H     0.074284      0.463189     -0.310871 
 H1137  H     0.183259      0.056712     -0.280730 
 H1138  H     0.031172      0.017437     -0.211750 
 H1139  H     0.482563      0.211750     -0.468828 
 H1140  H     0.218828      0.267437     -0.038250 
 H1141  H     0.066741      0.306712     -0.469270 
 H1142  H     0.175716      0.213189     -0.439129 
 H1143  H     0.066741      0.193288     -0.030730 
 H1144  H     0.267437      0.461750     -0.281172 
 H1145  H     0.232563      0.038250     -0.281172 
 H1146  H     0.030730      0.066741     -0.193288 
 H1147  H     0.463189      0.189129     -0.425716 
 H1148  H     0.031172      0.482563     -0.288250 
 H1149  H     0.017437      0.288250     -0.468828 
 H1150  H     0.218828      0.232563     -0.461750 
 H1151  H     0.469270      0.066741     -0.306712 
 H1152  H     0.112711      0.173937     -0.443982 
 H1153  H     0.132521      0.192676     -0.075445 
 H1154  H     0.112711      0.326063     -0.056018 
 H1155  H     0.132521      0.307324     -0.424555 
 H1156  H     0.137289      0.076063     -0.193982 
 H1157  H     0.117479      0.442676     -0.174555 
 H1158  H     0.137289      0.423937     -0.306018 
 H1159  H     0.117479      0.057324     -0.325445 
 H1160  H     0.076063      0.306018     -0.362711 
 H1161  H     0.174555      0.117479     -0.442676 
 H1162  H     0.326063      0.443982     -0.387289 
 H1163  H     0.424555      0.132521     -0.307324 
 H1164  H     0.423937      0.193982     -0.362711 
 H1165  H     0.325445      0.117479     -0.057324 
 H1166  H     0.173937      0.056018     -0.387289 
 H1167  H     0.075445      0.132521     -0.192676 
 H1168  H     0.193982      0.137289     -0.076063 
 H1169  H     0.056018      0.112711     -0.326063 
 H1170  H     0.442676      0.325445     -0.382521 
 H1171  H     0.306018      0.137289     -0.423937 
 H1172  H     0.192676      0.424555     -0.367479 
 H1173  H     0.443982      0.112711     -0.173937 
 H1174  H     0.057324      0.174555     -0.382521 
 H1175  H     0.307324      0.075445     -0.367479 
 H1176  H     0.310871      0.425716     -0.036811 
 H1177  H     0.193288      0.030730     -0.066741 
 H1178  H     0.060871      0.324284     -0.213189 
 H1179  H     0.189129      0.425716     -0.463189 
 H1180  H     0.030730      0.433259     -0.306712 
 H1181  H     0.463189      0.310871     -0.074284 
 H1182  H     0.324284      0.286811     -0.439129 
 H1183  H     0.433259      0.193288     -0.469270 
 H1184  H     0.425716      0.036811     -0.310871 
 H1185  H     0.286811      0.060871     -0.175716 
 H1186  H     0.469270      0.433259     -0.193288 
 H1187  H     0.036811      0.189129     -0.074284 
 H1188  H     0.288250      0.468828     -0.017437 
 H1189  H     0.461750      0.281172     -0.267437 
 H1190  H     0.038250      0.281172     -0.232563 
 H1191  H     0.443288      0.219270     -0.183259 
 H1192  H     0.439129      0.324284     -0.286811 
 H1193  H     0.056712      0.280730     -0.183259 
 H1194  H     0.211750      0.468828     -0.482563 
 H1195  H     0.306712      0.469270     -0.066741 
 H1196  H     0.324284      0.213189     -0.060871 
 H1197  H     0.433259      0.306712     -0.030730 
 H1198  H     0.281172      0.267437     -0.461750 
 H1199  H     0.232563      0.461750     -0.218828 
 H1200  H     0.468828      0.017437     -0.288250 
 H1201  H     0.316741      0.056712     -0.219270 
 H1202  H     0.425716      0.463189     -0.189129 
 H1203  H     0.316741      0.443288     -0.280730 
 H1204  H     0.017437      0.211750     -0.031172 
 H1205  H     0.482563      0.288250     -0.031172 
 H1206  H     0.280730      0.316741     -0.443288 
 H1207  H     0.213189      0.439129     -0.175716 
 H1208  H     0.281172      0.232563     -0.038250 
 H1209  H     0.267437      0.038250     -0.218828 
 H1210  H     0.468828      0.482563     -0.211750 
 H1211  H     0.219270      0.316741     -0.056712 
 H1212  H     0.362711      0.423937     -0.193982 
 H1213  H     0.382521      0.442676     -0.325445 
 H1214  H     0.362711      0.076063     -0.306018 
 H1215  H     0.382521      0.057324     -0.174555 
 H1216  H     0.387289      0.326063     -0.443982 
 H1217  H     0.367479      0.192676     -0.424555 
 H1218  H     0.387289      0.173937     -0.056018 
 H1219  H     0.367479      0.307324     -0.075445 
 H1220  H     0.326063      0.056018     -0.112711 
 H1221  H     0.424555      0.367479     -0.192676 
 H1222  H     0.076063      0.193982     -0.137289 
 H1223  H     0.174555      0.382521     -0.057324 
 H1224  H     0.173937      0.443982     -0.112711 
 H1225  H     0.075445      0.367479     -0.307324 
 H1226  H     0.423937      0.306018     -0.137289 
 H1227  H     0.325445      0.382521     -0.442676 
 H1228  H     0.443982      0.387289     -0.326063 
 H1229  H     0.306018      0.362711     -0.076063 
 H1230  H     0.192676      0.075445     -0.132521 
 H1231  H     0.056018      0.387289     -0.173937 
 H1232  H     0.442676      0.174555     -0.117479 
 H1233  H     0.193982      0.362711     -0.423937 
 H1234  H     0.307324      0.424555     -0.132521 
 H1235  H     0.057324      0.325445     -0.117479 
 C1236  C     0.091589      0.196520     -0.435028 
 C1237  C     0.154739      0.185783     -0.053189 
 C1238  C     0.091589      0.303480     -0.064972 
 C1239  C     0.154739      0.314217     -0.446811 
 C1240  C     0.158411      0.053480     -0.185028 
 C1241  C     0.095261      0.435783     -0.196811 
 C1242  C     0.158411      0.446520     -0.314972 
 C1243  C     0.095261      0.064217     -0.303189 
 C1244  C     0.053480      0.314972     -0.341589 
 C1245  C     0.196811      0.095261     -0.435783 
 C1246  C     0.303480      0.435028     -0.408411 
 C1247  C     0.446811      0.154739     -0.314217 
 C1248  C     0.446520      0.185028     -0.341589 
 C1249  C     0.303189      0.095261     -0.064217 
 C1250  C     0.196520      0.064972     -0.408411 
 C1251  C     0.053189      0.154739     -0.185783 
 C1252  C     0.185028      0.158411     -0.053480 
 C1253  C     0.064972      0.091589     -0.303480 
 C1254  C     0.435783      0.303189     -0.404739 
 C1255  C     0.314972      0.158411     -0.446520 
 C1256  C     0.185783      0.446811     -0.345261 
 C1257  C     0.435028      0.091589     -0.196520 
 C1258  C     0.064217      0.196811     -0.404739 
 C1259  C     0.314217      0.053189     -0.345261 
 C1260  C     0.059397      0.252511     -0.437142 
 C1261  C     0.187142      0.190603     -0.497489 
 C1262  C     0.309397      0.497489     -0.312858 
 C1263  C     0.187142      0.309397     -0.002511 
 C1264  C     0.440603      0.247489     -0.437142 
 C1265  C     0.062858      0.440603     -0.252511 
 C1266  C     0.190603      0.002511     -0.312858 
 C1267  C     0.062858      0.059397     -0.247489 
 C1268  C     0.247489      0.062858     -0.059397 
 C1269  C     0.252511      0.062858     -0.440603 
 C1270  C     0.497489      0.187142     -0.190603 
 C1271  C     0.002511      0.187142     -0.309397 
 C1272  C     0.044498      0.291721     -0.450898 
 C1273  C     0.200898      0.205502     -0.458279 
 C1274  C     0.294498      0.458279     -0.299102 
 C1275  C     0.200898      0.294498     -0.041721 
 C1276  C     0.455502      0.208279     -0.450898 
 C1277  C     0.049102      0.455502     -0.291721 
 C1278  C     0.205502      0.041721     -0.299102 
 C1279  C     0.049102      0.044498     -0.208279 
 C1280  C     0.208279      0.049102     -0.044498 
 C1281  C     0.291721      0.049102     -0.455502 
 C1282  C     0.458279      0.200898     -0.205502 
 C1283  C     0.041721      0.200898     -0.294498 
 C1284  C     0.341589      0.446520     -0.185028 
 C1285  C     0.404739      0.435783     -0.303189 
 C1286  C     0.341589      0.053480     -0.314972 
 C1287  C     0.404739      0.064217     -0.196811 
 C1288  C     0.408411      0.303480     -0.435028 
 C1289  C     0.345261      0.185783     -0.446811 
 C1290  C     0.408411      0.196520     -0.064972 
 C1291  C     0.345261      0.314217     -0.053189 
 C1292  C     0.303480      0.064972     -0.091589 
 C1293  C     0.446811      0.345261     -0.185783 
 C1294  C     0.053480      0.185028     -0.158411 
 C1295  C     0.196811      0.404739     -0.064217 
 C1296  C     0.196520      0.435028     -0.091589 
 C1297  C     0.053189      0.345261     -0.314217 
 C1298  C     0.446520      0.314972     -0.158411 
 C1299  C     0.303189      0.404739     -0.435783 
 C1300  C     0.435028      0.408411     -0.303480 
 C1301  C     0.314972      0.341589     -0.053480 
 C1302  C     0.185783      0.053189     -0.154739 
 C1303  C     0.064972      0.408411     -0.196520 
 C1304  C     0.435783      0.196811     -0.095261 
 C1305  C     0.185028      0.341589     -0.446520 
 C1306  C     0.314217      0.446811     -0.154739 
 C1307  C     0.064217      0.303189     -0.095261 
 C1308  C     0.309397      0.002511     -0.187142 
 C1309  C     0.437142      0.440603     -0.247489 
 C1310  C     0.059397      0.247489     -0.062858 
 C1311  C     0.437142      0.059397     -0.252511 
 C1312  C     0.190603      0.497489     -0.187142 
 C1313  C     0.312858      0.190603     -0.002511 
 C1314  C     0.440603      0.252511     -0.062858 
 C1315  C     0.312858      0.309397     -0.497489 
 C1316  C     0.497489      0.312858     -0.309397 
 C1317  C     0.002511      0.312858     -0.190603 
 C1318  C     0.247489      0.437142     -0.440603 
 C1319  C     0.252511      0.437142     -0.059397 
 C1320  C     0.294498      0.041721     -0.200898 
 C1321  C     0.450898      0.455502     -0.208279 
 C1322  C     0.044498      0.208279     -0.049102 
 C1323  C     0.450898      0.044498     -0.291721 
 C1324  C     0.205502      0.458279     -0.200898 
 C1325  C     0.299102      0.205502     -0.041721 
 C1326  C     0.455502      0.291721     -0.049102 
 C1327  C     0.299102      0.294498     -0.458279 
 C1328  C     0.458279      0.299102     -0.294498 
 C1329  C     0.041721      0.299102     -0.205502 
 C1330  C     0.208279      0.450898     -0.455502 
 C1331  C     0.291721      0.450898     -0.044498 
 N1332  N     0.088448      0.231850     -0.455263 
 N1333  N     0.156170      0.205864     -0.017694 
 N1334  N     0.088448      0.268150     -0.044737 
 N1335  N     0.156170      0.294136     -0.482306 
 N1336  N     0.161552      0.018150     -0.205263 
 N1337  N     0.093830      0.455864     -0.232306 
 N1338  N     0.161552      0.481850     -0.294737 
 N1339  N     0.093830      0.044136     -0.267694 
 N1340  N     0.018150      0.294737     -0.338448 
 N1341  N     0.232306      0.093830     -0.455864 
 N1342  N     0.268150      0.455263     -0.411552 
 N1343  N     0.482306      0.156170     -0.294136 
 N1344  N     0.481850      0.205263     -0.338448 
 N1345  N     0.267694      0.093830     -0.044136 
 N1346  N     0.231850      0.044737     -0.411552 
 N1347  N     0.017694      0.156170     -0.205864 
 N1348  N     0.205263      0.161552     -0.018150 
 N1349  N     0.044737      0.088448     -0.268150 
 N1350  N     0.455864      0.267694     -0.406170 
 N1351  N     0.294737      0.161552     -0.481850 
 N1352  N     0.205864      0.482306     -0.343830 
 N1353  N     0.455263      0.088448     -0.231850 
 N1354  N     0.044136      0.232306     -0.406170 
 N1355  N     0.294136      0.017694     -0.343830 
 N1356  N     0.338448      0.481850     -0.205263 
 N1357  N     0.406170      0.455864     -0.267694 
 N1358  N     0.338448      0.018150     -0.294737 
 N1359  N     0.406170      0.044136     -0.232306 
 N1360  N     0.411552      0.268150     -0.455263 
 N1361  N     0.343830      0.205864     -0.482306 
 N1362  N     0.411552      0.231850     -0.044737 
 N1363  N     0.343830      0.294136     -0.017694 
 N1364  N     0.268150      0.044737     -0.088448 
 N1365  N     0.482306      0.343830     -0.205864 
 N1366  N     0.018150      0.205263     -0.161552 
 N1367  N     0.232306      0.406170     -0.044136 
 N1368  N     0.231850      0.455263     -0.088448 
 N1369  N     0.017694      0.343830     -0.294136 
 N1370  N     0.481850      0.294737     -0.161552 
 N1371  N     0.267694      0.406170     -0.455864 
 N1372  N     0.455263      0.411552     -0.268150 
 N1373  N     0.294737      0.338448     -0.018150 
 N1374  N     0.205864      0.017694     -0.156170 
 N1375  N     0.044737      0.411552     -0.231850 
 N1376  N     0.455864      0.232306     -0.093830 
 N1377  N     0.205263      0.338448     -0.481850 
 N1378  N     0.294136      0.482306     -0.156170 
 N1379  N     0.044136      0.267694     -0.093830 
 Zn1380  Zn    -0.378267      0.250000      0.500000 
 Zn1381  Zn    -0.371733      0.000000     -0.250000 
 Zn1382  Zn     0.500000      0.250000     -0.371733 
 Zn1383  Zn    -0.250000      0.128267      0.500000 
 Zn1384  Zn    -0.250000      0.000000     -0.378267 
 Zn1385  Zn     0.500000      0.121733     -0.250000 
 Zn1386  Zn    -0.128267      0.000000     -0.250000 
 Zn1387  Zn    -0.121733      0.250000      0.500000 
 Zn1388  Zn    -0.250000      0.000000     -0.121733 
 Zn1389  Zn     0.500000      0.378267     -0.250000 
 Zn1390  Zn     0.500000      0.250000     -0.128267 
 Zn1391  Zn    -0.250000      0.371733      0.500000 
 H1392  H    -0.439129      0.175716     -0.286811 
 H1393  H    -0.056712      0.280730     -0.316741 
 H1394  H    -0.189129      0.074284     -0.463189 
 H1395  H    -0.060871      0.175716     -0.213189 
 H1396  H    -0.219270      0.183259     -0.056712 
 H1397  H    -0.286811      0.060871     -0.324284 
 H1398  H    -0.425716      0.036811     -0.189129 
 H1399  H    -0.316741      0.443288     -0.219270 
 H1400  H    -0.324284      0.286811     -0.060871 
 H1401  H    -0.463189      0.310871     -0.425716 
 H1402  H    -0.280730      0.183259     -0.443288 
 H1403  H    -0.213189      0.439129     -0.324284 
 H1404  H    -0.461750      0.218828     -0.267437 
 H1405  H    -0.288250      0.031172     -0.017437 
 H1406  H    -0.211750      0.031172     -0.482563 
 H1407  H    -0.306712      0.469270     -0.433259 
 H1408  H    -0.310871      0.074284     -0.036811 
 H1409  H    -0.193288      0.030730     -0.433259 
 H1410  H    -0.038250      0.218828     -0.232563 
 H1411  H    -0.443288      0.219270     -0.316741 
 H1412  H    -0.425716      0.463189     -0.310871 
 H1413  H    -0.316741      0.056712     -0.280730 
 H1414  H    -0.468828      0.017437     -0.211750 
 H1415  H    -0.017437      0.211750     -0.468828 
 H1416  H    -0.281172      0.267437     -0.038250 
 H1417  H    -0.433259      0.306712     -0.469270 
 H1418  H    -0.324284      0.213189     -0.439129 
 H1419  H    -0.433259      0.193288     -0.030730 
 H1420  H    -0.232563      0.461750     -0.281172 
 H1421  H    -0.267437      0.038250     -0.281172 
 H1422  H    -0.469270      0.066741     -0.193288 
 H1423  H    -0.036811      0.189129     -0.425716 
 H1424  H    -0.468828      0.482563     -0.288250 
 H1425  H    -0.482563      0.288250     -0.468828 
 H1426  H    -0.281172      0.232563     -0.461750 
 H1427  H    -0.030730      0.066741     -0.306712 
 H1428  H    -0.387289      0.173937     -0.443982 
 H1429  H    -0.367479      0.192676     -0.075445 
 H1430  H    -0.387289      0.326063     -0.056018 
 H1431  H    -0.367479      0.307324     -0.424555 
 H1432  H    -0.362711      0.076063     -0.193982 
 H1433  H    -0.382521      0.442676     -0.174555 
 H1434  H    -0.362711      0.423937     -0.306018 
 H1435  H    -0.382521      0.057324     -0.325445 
 H1436  H    -0.423937      0.306018     -0.362711 
 H1437  H    -0.325445      0.117479     -0.442676 
 H1438  H    -0.173937      0.443982     -0.387289 
 H1439  H    -0.075445      0.132521     -0.307324 
 H1440  H    -0.076063      0.193982     -0.362711 
 H1441  H    -0.174555      0.117479     -0.057324 
 H1442  H    -0.326063      0.056018     -0.387289 
 H1443  H    -0.424555      0.132521     -0.192676 
 H1444  H    -0.306018      0.137289     -0.076063 
 H1445  H    -0.443982      0.112711     -0.326063 
 H1446  H    -0.057324      0.325445     -0.382521 
 H1447  H    -0.193982      0.137289     -0.423937 
 H1448  H    -0.307324      0.424555     -0.367479 
 H1449  H    -0.056018      0.112711     -0.173937 
 H1450  H    -0.442676      0.174555     -0.382521 
 H1451  H    -0.192676      0.075445     -0.367479 
 H1452  H    -0.189129      0.425716     -0.036811 
 H1453  H    -0.306712      0.030730     -0.066741 
 H1454  H    -0.439129      0.324284     -0.213189 
 H1455  H    -0.310871      0.425716     -0.463189 
 H1456  H    -0.469270      0.433259     -0.306712 
 H1457  H    -0.036811      0.310871     -0.074284 
 H1458  H    -0.175716      0.286811     -0.439129 
 H1459  H    -0.066741      0.193288     -0.469270 
 H1460  H    -0.074284      0.036811     -0.310871 
 H1461  H    -0.213189      0.060871     -0.175716 
 H1462  H    -0.030730      0.433259     -0.193288 
 H1463  H    -0.463189      0.189129     -0.074284 
 H1464  H    -0.211750      0.468828     -0.017437 
 H1465  H    -0.038250      0.281172     -0.267437 
 H1466  H    -0.461750      0.281172     -0.232563 
 H1467  H    -0.056712      0.219270     -0.183259 
 H1468  H    -0.060871      0.324284     -0.286811 
 H1469  H    -0.443288      0.280730     -0.183259 
 H1470  H    -0.288250      0.468828     -0.482563 
 H1471  H    -0.193288      0.469270     -0.066741 
 H1472  H    -0.175716      0.213189     -0.060871 
 H1473  H    -0.066741      0.306712     -0.030730 
 H1474  H    -0.218828      0.267437     -0.461750 
 H1475  H    -0.267437      0.461750     -0.218828 
 H1476  H    -0.031172      0.017437     -0.288250 
 H1477  H    -0.183259      0.056712     -0.219270 
 H1478  H    -0.074284      0.463189     -0.189129 
 H1479  H    -0.183259      0.443288     -0.280730 
 H1480  H    -0.482563      0.211750     -0.031172 
 H1481  H    -0.017437      0.288250     -0.031172 
 H1482  H    -0.219270      0.316741     -0.443288 
 H1483  H    -0.286811      0.439129     -0.175716 
 H1484  H    -0.218828      0.232563     -0.038250 
 H1485  H    -0.232563      0.038250     -0.218828 
 H1486  H    -0.031172      0.482563     -0.211750 
 H1487  H    -0.280730      0.316741     -0.056712 
 H1488  H    -0.137289      0.423937     -0.193982 
 H1489  H    -0.117479      0.442676     -0.325445 
 H1490  H    -0.137289      0.076063     -0.306018 
 H1491  H    -0.117479      0.057324     -0.174555 
 H1492  H    -0.112711      0.326063     -0.443982 
 H1493  H    -0.132521      0.192676     -0.424555 
 H1494  H    -0.112711      0.173937     -0.056018 
 H1495  H    -0.132521      0.307324     -0.075445 
 H1496  H    -0.173937      0.056018     -0.112711 
 H1497  H    -0.075445      0.367479     -0.192676 
 H1498  H    -0.423937      0.193982     -0.137289 
 H1499  H    -0.325445      0.382521     -0.057324 
 H1500  H    -0.326063      0.443982     -0.112711 
 H1501  H    -0.424555      0.367479     -0.307324 
 H1502  H    -0.076063      0.306018     -0.137289 
 H1503  H    -0.174555      0.382521     -0.442676 
 H1504  H    -0.056018      0.387289     -0.326063 
 H1505  H    -0.193982      0.362711     -0.076063 
 H1506  H    -0.307324      0.075445     -0.132521 
 H1507  H    -0.443982      0.387289     -0.173937 
 H1508  H    -0.057324      0.174555     -0.117479 
 H1509  H    -0.306018      0.362711     -0.423937 
 H1510  H    -0.192676      0.424555     -0.132521 
 H1511  H    -0.442676      0.325445     -0.117479 
 C1512  C    -0.408411      0.196520     -0.435028 
 C1513  C    -0.345261      0.185783     -0.053189 
 C1514  C    -0.408411      0.303480     -0.064972 
 C1515  C    -0.345261      0.314217     -0.446811 
 C1516  C    -0.341589      0.053480     -0.185028 
 C1517  C    -0.404739      0.435783     -0.196811 
 C1518  C    -0.341589      0.446520     -0.314972 
 C1519  C    -0.404739      0.064217     -0.303189 
 C1520  C    -0.446520      0.314972     -0.341589 
 C1521  C    -0.303189      0.095261     -0.435783 
 C1522  C    -0.196520      0.435028     -0.408411 
 C1523  C    -0.053189      0.154739     -0.314217 
 C1524  C    -0.053480      0.185028     -0.341589 
 C1525  C    -0.196811      0.095261     -0.064217 
 C1526  C    -0.303480      0.064972     -0.408411 
 C1527  C    -0.446811      0.154739     -0.185783 
 C1528  C    -0.314972      0.158411     -0.053480 
 C1529  C    -0.435028      0.091589     -0.303480 
 C1530  C    -0.064217      0.303189     -0.404739 
 C1531  C    -0.185028      0.158411     -0.446520 
 C1532  C    -0.314217      0.446811     -0.345261 
 C1533  C    -0.064972      0.091589     -0.196520 
 C1534  C    -0.435783      0.196811     -0.404739 
 C1535  C    -0.185783      0.053189     -0.345261 
 C1536  C    -0.440603      0.252511     -0.437142 
 C1537  C    -0.312858      0.190603     -0.497489 
 C1538  C    -0.190603      0.497489     -0.312858 
 C1539  C    -0.312858      0.309397     -0.002511 
 C1540  C    -0.059397      0.247489     -0.437142 
 C1541  C    -0.437142      0.440603     -0.252511 
 C1542  C    -0.309397      0.002511     -0.312858 
 C1543  C    -0.437142      0.059397     -0.247489 
 C1544  C    -0.252511      0.062858     -0.059397 
 C1545  C    -0.247489      0.062858     -0.440603 
 C1546  C    -0.002511      0.187142     -0.190603 
 C1547  C    -0.497489      0.187142     -0.309397 
 C1548  C    -0.455502      0.291721     -0.450898 
 C1549  C    -0.299102      0.205502     -0.458279 
 C1550  C    -0.205502      0.458279     -0.299102 
 C1551  C    -0.299102      0.294498     -0.041721 
 C1552  C    -0.044498      0.208279     -0.450898 
 C1553  C    -0.450898      0.455502     -0.291721 
 C1554  C    -0.294498      0.041721     -0.299102 
 C1555  C    -0.450898      0.044498     -0.208279 
 C1556  C    -0.291721      0.049102     -0.044498 
 C1557  C    -0.208279      0.049102     -0.455502 
 C1558  C    -0.041721      0.200898     -0.205502 
 C1559  C    -0.458279      0.200898     -0.294498 
 C1560  C    -0.158411      0.446520     -0.185028 
 C1561  C    -0.095261      0.435783     -0.303189 
 C1562  C    -0.158411      0.053480     -0.314972 
 C1563  C    -0.095261      0.064217     -0.196811 
 C1564  C    -0.091589      0.303480     -0.435028 
 C1565  C    -0.154739      0.185783     -0.446811 
 C1566  C    -0.091589      0.196520     -0.064972 
 C1567  C    -0.154739      0.314217     -0.053189 
 C1568  C    -0.196520      0.064972     -0.091589 
 C1569  C    -0.053189      0.345261     -0.185783 
 C1570  C    -0.446520      0.185028     -0.158411 
 C1571  C    -0.303189      0.404739     -0.064217 
 C1572  C    -0.303480      0.435028     -0.091589 
 C1573  C    -0.446811      0.345261     -0.314217 
 C1574  C    -0.053480      0.314972     -0.158411 
 C1575  C    -0.196811      0.404739     -0.435783 
 C1576  C    -0.064972      0.408411     -0.303480 
 C1577  C    -0.185028      0.341589     -0.053480 
 C1578  C    -0.314217      0.053189     -0.154739 
 C1579  C    -0.435028      0.408411     -0.196520 
 C1580  C    -0.064217      0.196811     -0.095261 
 C1581  C    -0.314972      0.341589     -0.446520 
 C1582  C    -0.185783      0.446811     -0.154739 
 C1583  C    -0.435783      0.303189     -0.095261 
 C1584  C    -0.190603      0.002511     -0.187142 
 C1585  C    -0.062858      0.440603     -0.247489 
 C1586  C    -0.440603      0.247489     -0.062858 
 C1587  C    -0.062858      0.059397     -0.252511 
 C1588  C    -0.309397      0.497489     -0.187142 
 C1589  C    -0.187142      0.190603     -0.002511 
 C1590  C    -0.059397      0.252511     -0.062858 
 C1591  C    -0.187142      0.309397     -0.497489 
 C1592  C    -0.002511      0.312858     -0.309397 
 C1593  C    -0.497489      0.312858     -0.190603 
 C1594  C    -0.252511      0.437142     -0.440603 
 C1595  C    -0.247489      0.437142     -0.059397 
 C1596  C    -0.205502      0.041721     -0.200898 
 C1597  C    -0.049102      0.455502     -0.208279 
 C1598  C    -0.455502      0.208279     -0.049102 
 C1599  C    -0.049102      0.044498     -0.291721 
 C1600  C    -0.294498      0.458279     -0.200898 
 C1601  C    -0.200898      0.205502     -0.041721 
 C1602  C    -0.044498      0.291721     -0.049102 
 C1603  C    -0.200898      0.294498     -0.458279 
 C1604  C    -0.041721      0.299102     -0.294498 
 C1605  C    -0.458279      0.299102     -0.205502 
 C1606  C    -0.291721      0.450898     -0.455502 
 C1607  C    -0.208279      0.450898     -0.044498 
 N1608  N    -0.411552      0.231850     -0.455263 
 N1609  N    -0.343830      0.205864     -0.017694 
 N1610  N    -0.411552      0.268150     -0.044737 
 N1611  N    -0.343830      0.294136     -0.482306 
 N1612  N    -0.338448      0.018150     -0.205263 
 N1613  N    -0.406170      0.455864     -0.232306 
 N1614  N    -0.338448      0.481850     -0.294737 
 N1615  N    -0.406170      0.044136     -0.267694 
 N1616  N    -0.481850      0.294737     -0.338448 
 N1617  N    -0.267694      0.093830     -0.455864 
 N1618  N    -0.231850      0.455263     -0.411552 
 N1619  N    -0.017694      0.156170     -0.294136 
 N1620  N    -0.018150      0.205263     -0.338448 
 N1621  N    -0.232306      0.093830     -0.044136 
 N1622  N    -0.268150      0.044737     -0.411552 
 N1623  N    -0.482306      0.156170     -0.205864 
 N1624  N    -0.294737      0.161552     -0.018150 
 N1625  N    -0.455263      0.088448     -0.268150 
 N1626  N    -0.044136      0.267694     -0.406170 
 N1627  N    -0.205263      0.161552     -0.481850 
 N1628  N    -0.294136      0.482306     -0.343830 
 N1629  N    -0.044737      0.088448     -0.231850 
 N1630  N    -0.455864      0.232306     -0.406170 
 N1631  N    -0.205864      0.017694     -0.343830 
 N1632  N    -0.161552      0.481850     -0.205263 
 N1633  N    -0.093830      0.455864     -0.267694 
 N1634  N    -0.161552      0.018150     -0.294737 
 N1635  N    -0.093830      0.044136     -0.232306 
 N1636  N    -0.088448      0.268150     -0.455263 
 N1637  N    -0.156170      0.205864     -0.482306 
 N1638  N    -0.088448      0.231850     -0.044737 
 N1639  N    -0.156170      0.294136     -0.017694 
 N1640  N    -0.231850      0.044737     -0.088448 
 N1641  N    -0.017694      0.343830     -0.205864 
 N1642  N    -0.481850      0.205263     -0.161552 
 N1643  N    -0.267694      0.406170     -0.044136 
 N1644  N    -0.268150      0.455263     -0.088448 
 N1645  N    -0.482306      0.343830     -0.294136 
 N1646  N    -0.018150      0.294737     -0.161552 
 N1647  N    -0.232306      0.406170     -0.455864 
 N1648  N    -0.044737      0.411552     -0.268150 
 N1649  N    -0.205263      0.338448     -0.018150 
 N1650  N    -0.294136      0.017694     -0.156170 
 N1651  N    -0.455263      0.411552     -0.231850 
 N1652  N    -0.044136      0.232306     -0.093830 
 N1653  N    -0.294737      0.338448     -0.481850 
 N1654  N    -0.205864      0.482306     -0.156170 
 N1655  N    -0.455864      0.267694     -0.093830 
 Zn1656  Zn     0.121733     -0.250000      0.500000 
 Zn1657  Zn     0.128267      0.500000     -0.250000 
 Zn1658  Zn     0.000000     -0.250000     -0.371733 
 Zn1659  Zn     0.250000     -0.371733      0.500000 
 Zn1660  Zn     0.250000      0.500000     -0.378267 
 Zn1661  Zn     0.000000     -0.378267     -0.250000 
 Zn1662  Zn     0.371733      0.500000     -0.250000 
 Zn1663  Zn     0.378267     -0.250000      0.500000 
 Zn1664  Zn     0.250000      0.500000     -0.121733 
 Zn1665  Zn     0.000000     -0.121733     -0.250000 
 Zn1666  Zn     0.000000     -0.250000     -0.128267 
 Zn1667  Zn     0.250000     -0.128267      0.500000 
 H1668  H     0.060871     -0.324284     -0.286811 
 H1669  H     0.443288     -0.219270     -0.316741 
 H1670  H     0.310871     -0.425716     -0.463189 
 H1671  H     0.439129     -0.324284     -0.213189 
 H1672  H     0.280730     -0.316741     -0.056712 
 H1673  H     0.213189     -0.439129     -0.324284 
 H1674  H     0.074284     -0.463189     -0.189129 
 H1675  H     0.183259     -0.056712     -0.219270 
 H1676  H     0.175716     -0.213189     -0.060871 
 H1677  H     0.036811     -0.189129     -0.425716 
 H1678  H     0.219270     -0.316741     -0.443288 
 H1679  H     0.286811     -0.060871     -0.324284 
 H1680  H     0.038250     -0.281172     -0.267437 
 H1681  H     0.211750     -0.468828     -0.017437 
 H1682  H     0.288250     -0.468828     -0.482563 
 H1683  H     0.193288     -0.030730     -0.433259 
 H1684  H     0.189129     -0.425716     -0.036811 
 H1685  H     0.306712     -0.469270     -0.433259 
 H1686  H     0.461750     -0.281172     -0.232563 
 H1687  H     0.056712     -0.280730     -0.316741 
 H1688  H     0.074284     -0.036811     -0.310871 
 H1689  H     0.183259     -0.443288     -0.280730 
 H1690  H     0.031172     -0.482563     -0.211750 
 H1691  H     0.482563     -0.288250     -0.468828 
 H1692  H     0.218828     -0.232563     -0.038250 
 H1693  H     0.066741     -0.193288     -0.469270 
 H1694  H     0.175716     -0.286811     -0.439129 
 H1695  H     0.066741     -0.306712     -0.030730 
 H1696  H     0.267437     -0.038250     -0.281172 
 H1697  H     0.232563     -0.461750     -0.281172 
 H1698  H     0.030730     -0.433259     -0.193288 
 H1699  H     0.463189     -0.310871     -0.425716 
 H1700  H     0.031172     -0.017437     -0.288250 
 H1701  H     0.017437     -0.211750     -0.468828 
 H1702  H     0.218828     -0.267437     -0.461750 
 H1703  H     0.469270     -0.433259     -0.306712 
 H1704  H     0.112711     -0.326063     -0.443982 
 H1705  H     0.132521     -0.307324     -0.075445 
 H1706  H     0.112711     -0.173937     -0.056018 
 H1707  H     0.132521     -0.192676     -0.424555 
 H1708  H     0.137289     -0.423937     -0.193982 
 H1709  H     0.117479     -0.057324     -0.174555 
 H1710  H     0.137289     -0.076063     -0.306018 
 H1711  H     0.117479     -0.442676     -0.325445 
 H1712  H     0.076063     -0.193982     -0.362711 
 H1713  H     0.174555     -0.382521     -0.442676 
 H1714  H     0.326063     -0.056018     -0.387289 
 H1715  H     0.424555     -0.367479     -0.307324 
 H1716  H     0.423937     -0.306018     -0.362711 
 H1717  H     0.325445     -0.382521     -0.057324 
 H1718  H     0.173937     -0.443982     -0.387289 
 H1719  H     0.075445     -0.367479     -0.192676 
 H1720  H     0.193982     -0.362711     -0.076063 
 H1721  H     0.056018     -0.387289     -0.326063 
 H1722  H     0.442676     -0.174555     -0.382521 
 H1723  H     0.306018     -0.362711     -0.423937 
 H1724  H     0.192676     -0.075445     -0.367479 
 H1725  H     0.443982     -0.387289     -0.173937 
 H1726  H     0.057324     -0.325445     -0.382521 
 H1727  H     0.307324     -0.424555     -0.367479 
 H1728  H     0.310871     -0.074284     -0.036811 
 H1729  H     0.193288     -0.469270     -0.066741 
 H1730  H     0.060871     -0.175716     -0.213189 
 H1731  H     0.189129     -0.074284     -0.463189 
 H1732  H     0.030730     -0.066741     -0.306712 
 H1733  H     0.463189     -0.189129     -0.074284 
 H1734  H     0.324284     -0.213189     -0.439129 
 H1735  H     0.433259     -0.306712     -0.469270 
 H1736  H     0.425716     -0.463189     -0.310871 
 H1737  H     0.286811     -0.439129     -0.175716 
 H1738  H     0.469270     -0.066741     -0.193288 
 H1739  H     0.036811     -0.310871     -0.074284 
 H1740  H     0.288250     -0.031172     -0.017437 
 H1741  H     0.461750     -0.218828     -0.267437 
 H1742  H     0.038250     -0.218828     -0.232563 
 H1743  H     0.443288     -0.280730     -0.183259 
 H1744  H     0.439129     -0.175716     -0.286811 
 H1745  H     0.056712     -0.219270     -0.183259 
 H1746  H     0.211750     -0.031172     -0.482563 
 H1747  H     0.306712     -0.030730     -0.066741 
 H1748  H     0.324284     -0.286811     -0.060871 
 H1749  H     0.433259     -0.193288     -0.030730 
 H1750  H     0.281172     -0.232563     -0.461750 
 H1751  H     0.232563     -0.038250     -0.218828 
 H1752  H     0.468828     -0.482563     -0.288250 
 H1753  H     0.316741     -0.443288     -0.219270 
 H1754  H     0.425716     -0.036811     -0.189129 
 H1755  H     0.316741     -0.056712     -0.280730 
 H1756  H     0.017437     -0.288250     -0.031172 
 H1757  H     0.482563     -0.211750     -0.031172 
 H1758  H     0.280730     -0.183259     -0.443288 
 H1759  H     0.213189     -0.060871     -0.175716 
 H1760  H     0.281172     -0.267437     -0.038250 
 H1761  H     0.267437     -0.461750     -0.218828 
 H1762  H     0.468828     -0.017437     -0.211750 
 H1763  H     0.219270     -0.183259     -0.056712 
 H1764  H     0.362711     -0.076063     -0.193982 
 H1765  H     0.382521     -0.057324     -0.325445 
 H1766  H     0.362711     -0.423937     -0.306018 
 H1767  H     0.382521     -0.442676     -0.174555 
 H1768  H     0.387289     -0.173937     -0.443982 
 H1769  H     0.367479     -0.307324     -0.424555 
 H1770  H     0.387289     -0.326063     -0.056018 
 H1771  H     0.367479     -0.192676     -0.075445 
 H1772  H     0.326063     -0.443982     -0.112711 
 H1773  H     0.424555     -0.132521     -0.192676 
 H1774  H     0.076063     -0.306018     -0.137289 
 H1775  H     0.174555     -0.117479     -0.057324 
 H1776  H     0.173937     -0.056018     -0.112711 
 H1777  H     0.075445     -0.132521     -0.307324 
 H1778  H     0.423937     -0.193982     -0.137289 
 H1779  H     0.325445     -0.117479     -0.442676 
 H1780  H     0.443982     -0.112711     -0.326063 
 H1781  H     0.306018     -0.137289     -0.076063 
 H1782  H     0.192676     -0.424555     -0.132521 
 H1783  H     0.056018     -0.112711     -0.173937 
 H1784  H     0.442676     -0.325445     -0.117479 
 H1785  H     0.193982     -0.137289     -0.423937 
 H1786  H     0.307324     -0.075445     -0.132521 
 H1787  H     0.057324     -0.174555     -0.117479 
 C1788  C     0.091589     -0.303480     -0.435028 
 C1789  C     0.154739     -0.314217     -0.053189 
 C1790  C     0.091589     -0.196520     -0.064972 
 C1791  C     0.154739     -0.185783     -0.446811 
 C1792  C     0.158411     -0.446520     -0.185028 
 C1793  C     0.095261     -0.064217     -0.196811 
 C1794  C     0.158411     -0.053480     -0.314972 
 C1795  C     0.095261     -0.435783     -0.303189 
 C1796  C     0.053480     -0.185028     -0.341589 
 C1797  C     0.196811     -0.404739     -0.435783 
 C1798  C     0.303480     -0.064972     -0.408411 
 C1799  C     0.446811     -0.345261     -0.314217 
 C1800  C     0.446520     -0.314972     -0.341589 
 C1801  C     0.303189     -0.404739     -0.064217 
 C1802  C     0.196520     -0.435028     -0.408411 
 C1803  C     0.053189     -0.345261     -0.185783 
 C1804  C     0.185028     -0.341589     -0.053480 
 C1805  C     0.064972     -0.408411     -0.303480 
 C1806  C     0.435783     -0.196811     -0.404739 
 C1807  C     0.314972     -0.341589     -0.446520 
 C1808  C     0.185783     -0.053189     -0.345261 
 C1809  C     0.435028     -0.408411     -0.196520 
 C1810  C     0.064217     -0.303189     -0.404739 
 C1811  C     0.314217     -0.446811     -0.345261 
 C1812  C     0.059397     -0.247489     -0.437142 
 C1813  C     0.187142     -0.309397     -0.497489 
 C1814  C     0.309397     -0.002511     -0.312858 
 C1815  C     0.187142     -0.190603     -0.002511 
 C1816  C     0.440603     -0.252511     -0.437142 
 C1817  C     0.062858     -0.059397     -0.252511 
 C1818  C     0.190603     -0.497489     -0.312858 
 C1819  C     0.062858     -0.440603     -0.247489 
 C1820  C     0.247489     -0.437142     -0.059397 
 C1821  C     0.252511     -0.437142     -0.440603 
 C1822  C     0.497489     -0.312858     -0.190603 
 C1823  C     0.002511     -0.312858     -0.309397 
 C1824  C     0.044498     -0.208279     -0.450898 
 C1825  C     0.200898     -0.294498     -0.458279 
 C1826  C     0.294498     -0.041721     -0.299102 
 C1827  C     0.200898     -0.205502     -0.041721 
 C1828  C     0.455502     -0.291721     -0.450898 
 C1829  C     0.049102     -0.044498     -0.291721 
 C1830  C     0.205502     -0.458279     -0.299102 
 C1831  C     0.049102     -0.455502     -0.208279 
 C1832  C     0.208279     -0.450898     -0.044498 
 C1833  C     0.291721     -0.450898     -0.455502 
 C1834  C     0.458279     -0.299102     -0.205502 
 C1835  C     0.041721     -0.299102     -0.294498 
 C1836  C     0.341589     -0.053480     -0.185028 
 C1837  C     0.404739     -0.064217     -0.303189 
 C1838  C     0.341589     -0.446520     -0.314972 
 C1839  C     0.404739     -0.435783     -0.196811 
 C1840  C     0.408411     -0.196520     -0.435028 
 C1841  C     0.345261     -0.314217     -0.446811 
 C1842  C     0.408411     -0.303480     -0.064972 
 C1843  C     0.345261     -0.185783     -0.053189 
 C1844  C     0.303480     -0.435028     -0.091589 
 C1845  C     0.446811     -0.154739     -0.185783 
 C1846  C     0.053480     -0.314972     -0.158411 
 C1847  C     0.196811     -0.095261     -0.064217 
 C1848  C     0.196520     -0.064972     -0.091589 
 C1849  C     0.053189     -0.154739     -0.314217 
 C1850  C     0.446520     -0.185028     -0.158411 
 C1851  C     0.303189     -0.095261     -0.435783 
 C1852  C     0.435028     -0.091589     -0.303480 
 C1853  C     0.314972     -0.158411     -0.053480 
 C1854  C     0.185783     -0.446811     -0.154739 
 C1855  C     0.064972     -0.091589     -0.196520 
 C1856  C     0.435783     -0.303189     -0.095261 
 C1857  C     0.185028     -0.158411     -0.446520 
 C1858  C     0.314217     -0.053189     -0.154739 
 C1859  C     0.064217     -0.196811     -0.095261 
 C1860  C     0.309397     -0.497489     -0.187142 
 C1861  C     0.437142     -0.059397     -0.247489 
 C1862  C     0.059397     -0.252511     -0.062858 
 C1863  C     0.437142     -0.440603     -0.252511 
 C1864  C     0.190603     -0.002511     -0.187142 
 C1865  C     0.312858     -0.309397     -0.002511 
 C1866  C     0.440603     -0.247489     -0.062858 
 C1867  C     0.312858     -0.190603     -0.497489 
 C1868  C     0.497489     -0.187142     -0.309397 
 C1869  C     0.002511     -0.187142     -0.190603 
 C1870  C     0.247489     -0.062858     -0.440603 
 C1871  C     0.252511     -0.062858     -0.059397 
 C1872  C     0.294498     -0.458279     -0.200898 
 C1873  C     0.450898     -0.044498     -0.208279 
 C1874  C     0.044498     -0.291721     -0.049102 
 C1875  C     0.450898     -0.455502     -0.291721 
 C1876  C     0.205502     -0.041721     -0.200898 
 C1877  C     0.299102     -0.294498     -0.041721 
 C1878  C     0.455502     -0.208279     -0.049102 
 C1879  C     0.299102     -0.205502     -0.458279 
 C1880  C     0.458279     -0.200898     -0.294498 
 C1881  C     0.041721     -0.200898     -0.205502 
 C1882  C     0.208279     -0.049102     -0.455502 
 C1883  C     0.291721     -0.049102     -0.044498 
 N1884  N     0.088448     -0.268150     -0.455263 
 N1885  N     0.156170     -0.294136     -0.017694 
 N1886  N     0.088448     -0.231850     -0.044737 
 N1887  N     0.156170     -0.205864     -0.482306 
 N1888  N     0.161552     -0.481850     -0.205263 
 N1889  N     0.093830     -0.044136     -0.232306 
 N1890  N     0.161552     -0.018150     -0.294737 
 N1891  N     0.093830     -0.455864     -0.267694 
 N1892  N     0.018150     -0.205263     -0.338448 
 N1893  N     0.232306     -0.406170     -0.455864 
 N1894  N     0.268150     -0.044737     -0.411552 
 N1895  N     0.482306     -0.343830     -0.294136 
 N1896  N     0.481850     -0.294737     -0.338448 
 N1897  N     0.267694     -0.406170     -0.044136 
 N1898  N     0.231850     -0.455263     -0.411552 
 N1899  N     0.017694     -0.343830     -0.205864 
 N1900  N     0.205263     -0.338448     -0.018150 
 N1901  N     0.044737     -0.411552     -0.268150 
 N1902  N     0.455864     -0.232306     -0.406170 
 N1903  N     0.294737     -0.338448     -0.481850 
 N1904  N     0.205864     -0.017694     -0.343830 
 N1905  N     0.455263     -0.411552     -0.231850 
 N1906  N     0.044136     -0.267694     -0.406170 
 N1907  N     0.294136     -0.482306     -0.343830 
 N1908  N     0.338448     -0.018150     -0.205263 
 N1909  N     0.406170     -0.044136     -0.267694 
 N1910  N     0.338448     -0.481850     -0.294737 
 N1911  N     0.406170     -0.455864     -0.232306 
 N1912  N     0.411552     -0.231850     -0.455263 
 N1913  N     0.343830     -0.294136     -0.482306 
 N1914  N     0.411552     -0.268150     -0.044737 
 N1915  N     0.343830     -0.205864     -0.017694 
 N1916  N     0.268150     -0.455263     -0.088448 
 N1917  N     0.482306     -0.156170     -0.205864 
 N1918  N     0.018150     -0.294737     -0.161552 
 N1919  N     0.232306     -0.093830     -0.044136 
 N1920  N     0.231850     -0.044737     -0.088448 
 N1921  N     0.017694     -0.156170     -0.294136 
 N1922  N     0.481850     -0.205263     -0.161552 
 N1923  N     0.267694     -0.093830     -0.455864 
 N1924  N     0.455263     -0.088448     -0.268150 
 N1925  N     0.294737     -0.161552     -0.018150 
 N1926  N     0.205864     -0.482306     -0.156170 
 N1927  N     0.044737     -0.088448     -0.231850 
 N1928  N     0.455864     -0.267694     -0.093830 
 N1929  N     0.205263     -0.161552     -0.481850 
 N1930  N     0.294136     -0.017694     -0.156170 
 N1931  N     0.044136     -0.232306     -0.093830 
 Zn1932  Zn    -0.378267     -0.250000      0.500000 
 Zn1933  Zn    -0.371733      0.500000     -0.250000 
 Zn1934  Zn     0.500000     -0.250000     -0.371733 
 Zn1935  Zn    -0.250000     -0.371733      0.500000 
 Zn1936  Zn    -0.250000      0.500000     -0.378267 
 Zn1937  Zn     0.500000     -0.378267     -0.250000 
 Zn1938  Zn    -0.128267      0.500000     -0.250000 
 Zn1939  Zn    -0.121733     -0.250000      0.500000 
 Zn1940  Zn    -0.250000      0.500000     -0.121733 
 Zn1941  Zn     0.500000     -0.121733     -0.250000 
 Zn1942  Zn     0.500000     -0.250000     -0.128267 
 Zn1943  Zn    -0.250000     -0.128267      0.500000 
 H1944  H    -0.439129     -0.324284     -0.286811 
 H1945  H    -0.056712     -0.219270     -0.316741 
 H1946  H    -0.189129     -0.425716     -0.463189 
 H1947  H    -0.060871     -0.324284     -0.213189 
 H1948  H    -0.219270     -0.316741     -0.056712 
 H1949  H    -0.286811     -0.439129     -0.324284 
 H1950  H    -0.425716     -0.463189     -0.189129 
 H1951  H    -0.316741     -0.056712     -0.219270 
 H1952  H    -0.324284     -0.213189     -0.060871 
 H1953  H    -0.463189     -0.189129     -0.425716 
 H1954  H    -0.280730     -0.316741     -0.443288 
 H1955  H    -0.213189     -0.060871     -0.324284 
 H1956  H    -0.461750     -0.281172     -0.267437 
 H1957  H    -0.288250     -0.468828     -0.017437 
 H1958  H    -0.211750     -0.468828     -0.482563 
 H1959  H    -0.306712     -0.030730     -0.433259 
 H1960  H    -0.310871     -0.425716     -0.036811 
 H1961  H    -0.193288     -0.469270     -0.433259 
 H1962  H    -0.038250     -0.281172     -0.232563 
 H1963  H    -0.443288     -0.280730     -0.316741 
 H1964  H    -0.425716     -0.036811     -0.310871 
 H1965  H    -0.316741     -0.443288     -0.280730 
 H1966  H    -0.468828     -0.482563     -0.211750 
 H1967  H    -0.017437     -0.288250     -0.468828 
 H1968  H    -0.281172     -0.232563     -0.038250 
 H1969  H    -0.433259     -0.193288     -0.469270 
 H1970  H    -0.324284     -0.286811     -0.439129 
 H1971  H    -0.433259     -0.306712     -0.030730 
 H1972  H    -0.232563     -0.038250     -0.281172 
 H1973  H    -0.267437     -0.461750     -0.281172 
 H1974  H    -0.469270     -0.433259     -0.193288 
 H1975  H    -0.036811     -0.310871     -0.425716 
 H1976  H    -0.468828     -0.017437     -0.288250 
 H1977  H    -0.482563     -0.211750     -0.468828 
 H1978  H    -0.281172     -0.267437     -0.461750 
 H1979  H    -0.030730     -0.433259     -0.306712 
 H1980  H    -0.387289     -0.326063     -0.443982 
 H1981  H    -0.367479     -0.307324     -0.075445 
 H1982  H    -0.387289     -0.173937     -0.056018 
 H1983  H    -0.367479     -0.192676     -0.424555 
 H1984  H    -0.362711     -0.423937     -0.193982 
 H1985  H    -0.382521     -0.057324     -0.174555 
 H1986  H    -0.362711     -0.076063     -0.306018 
 H1987  H    -0.382521     -0.442676     -0.325445 
 H1988  H    -0.423937     -0.193982     -0.362711 
 H1989  H    -0.325445     -0.382521     -0.442676 
 H1990  H    -0.173937     -0.056018     -0.387289 
 H1991  H    -0.075445     -0.367479     -0.307324 
 H1992  H    -0.076063     -0.306018     -0.362711 
 H1993  H    -0.174555     -0.382521     -0.057324 
 H1994  H    -0.326063     -0.443982     -0.387289 
 H1995  H    -0.424555     -0.367479     -0.192676 
 H1996  H    -0.306018     -0.362711     -0.076063 
 H1997  H    -0.443982     -0.387289     -0.326063 
 H1998  H    -0.057324     -0.174555     -0.382521 
 H1999  H    -0.193982     -0.362711     -0.423937 
 H2000  H    -0.307324     -0.075445     -0.367479 
 H2001  H    -0.056018     -0.387289     -0.173937 
 H2002  H    -0.442676     -0.325445     -0.382521 
 H2003  H    -0.192676     -0.424555     -0.367479 
 H2004  H    -0.189129     -0.074284     -0.036811 
 H2005  H    -0.306712     -0.469270     -0.066741 
 H2006  H    -0.439129     -0.175716     -0.213189 
 H2007  H    -0.310871     -0.074284     -0.463189 
 H2008  H    -0.469270     -0.066741     -0.306712 
 H2009  H    -0.036811     -0.189129     -0.074284 
 H2010  H    -0.175716     -0.213189     -0.439129 
 H2011  H    -0.066741     -0.306712     -0.469270 
 H2012  H    -0.074284     -0.463189     -0.310871 
 H2013  H    -0.213189     -0.439129     -0.175716 
 H2014  H    -0.030730     -0.066741     -0.193288 
 H2015  H    -0.463189     -0.310871     -0.074284 
 H2016  H    -0.211750     -0.031172     -0.017437 
 H2017  H    -0.038250     -0.218828     -0.267437 
 H2018  H    -0.461750     -0.218828     -0.232563 
 H2019  H    -0.056712     -0.280730     -0.183259 
 H2020  H    -0.060871     -0.175716     -0.286811 
 H2021  H    -0.443288     -0.219270     -0.183259 
 H2022  H    -0.288250     -0.031172     -0.482563 
 H2023  H    -0.193288     -0.030730     -0.066741 
 H2024  H    -0.175716     -0.286811     -0.060871 
 H2025  H    -0.066741     -0.193288     -0.030730 
 H2026  H    -0.218828     -0.232563     -0.461750 
 H2027  H    -0.267437     -0.038250     -0.218828 
 H2028  H    -0.031172     -0.482563     -0.288250 
 H2029  H    -0.183259     -0.443288     -0.219270 
 H2030  H    -0.074284     -0.036811     -0.189129 
 H2031  H    -0.183259     -0.056712     -0.280730 
 H2032  H    -0.482563     -0.288250     -0.031172 
 H2033  H    -0.017437     -0.211750     -0.031172 
 H2034  H    -0.219270     -0.183259     -0.443288 
 H2035  H    -0.286811     -0.060871     -0.175716 
 H2036  H    -0.218828     -0.267437     -0.038250 
 H2037  H    -0.232563     -0.461750     -0.218828 
 H2038  H    -0.031172     -0.017437     -0.211750 
 H2039  H    -0.280730     -0.183259     -0.056712 
 H2040  H    -0.137289     -0.076063     -0.193982 
 H2041  H    -0.117479     -0.057324     -0.325445 
 H2042  H    -0.137289     -0.423937     -0.306018 
 H2043  H    -0.117479     -0.442676     -0.174555 
 H2044  H    -0.112711     -0.173937     -0.443982 
 H2045  H    -0.132521     -0.307324     -0.424555 
 H2046  H    -0.112711     -0.326063     -0.056018 
 H2047  H    -0.132521     -0.192676     -0.075445 
 H2048  H    -0.173937     -0.443982     -0.112711 
 H2049  H    -0.075445     -0.132521     -0.192676 
 H2050  H    -0.423937     -0.306018     -0.137289 
 H2051  H    -0.325445     -0.117479     -0.057324 
 H2052  H    -0.326063     -0.056018     -0.112711 
 H2053  H    -0.424555     -0.132521     -0.307324 
 H2054  H    -0.076063     -0.193982     -0.137289 
 H2055  H    -0.174555     -0.117479     -0.442676 
 H2056  H    -0.056018     -0.112711     -0.326063 
 H2057  H    -0.193982     -0.137289     -0.076063 
 H2058  H    -0.307324     -0.424555     -0.132521 
 H2059  H    -0.443982     -0.112711     -0.173937 
 H2060  H    -0.057324     -0.325445     -0.117479 
 H2061  H    -0.306018     -0.137289     -0.423937 
 H2062  H    -0.192676     -0.075445     -0.132521 
 H2063  H    -0.442676     -0.174555     -0.117479 
 C2064  C    -0.408411     -0.303480     -0.435028 
 C2065  C    -0.345261     -0.314217     -0.053189 
 C2066  C    -0.408411     -0.196520     -0.064972 
 C2067  C    -0.345261     -0.185783     -0.446811 
 C2068  C    -0.341589     -0.446520     -0.185028 
 C2069  C    -0.404739     -0.064217     -0.196811 
 C2070  C    -0.341589     -0.053480     -0.314972 
 C2071  C    -0.404739     -0.435783     -0.303189 
 C2072  C    -0.446520     -0.185028     -0.341589 
 C2073  C    -0.303189     -0.404739     -0.435783 
 C2074  C    -0.196520     -0.064972     -0.408411 
 C2075  C    -0.053189     -0.345261     -0.314217 
 C2076  C    -0.053480     -0.314972     -0.341589 
 C2077  C    -0.196811     -0.404739     -0.064217 
 C2078  C    -0.303480     -0.435028     -0.408411 
 C2079  C    -0.446811     -0.345261     -0.185783 
 C2080  C    -0.314972     -0.341589     -0.053480 
 C2081  C    -0.435028     -0.408411     -0.303480 
 C2082  C    -0.064217     -0.196811     -0.404739 
 C2083  C    -0.185028     -0.341589     -0.446520 
 C2084  C    -0.314217     -0.053189     -0.345261 
 C2085  C    -0.064972     -0.408411     -0.196520 
 C2086  C    -0.435783     -0.303189     -0.404739 
 C2087  C    -0.185783     -0.446811     -0.345261 
 C2088  C    -0.440603     -0.247489     -0.437142 
 C2089  C    -0.312858     -0.309397     -0.497489 
 C2090  C    -0.190603     -0.002511     -0.312858 
 C2091  C    -0.312858     -0.190603     -0.002511 
 C2092  C    -0.059397     -0.252511     -0.437142 
 C2093  C    -0.437142     -0.059397     -0.252511 
 C2094  C    -0.309397     -0.497489     -0.312858 
 C2095  C    -0.437142     -0.440603     -0.247489 
 C2096  C    -0.252511     -0.437142     -0.059397 
 C2097  C    -0.247489     -0.437142     -0.440603 
 C2098  C    -0.002511     -0.312858     -0.190603 
 C2099  C    -0.497489     -0.312858     -0.309397 
 C2100  C    -0.455502     -0.208279     -0.450898 
 C2101  C    -0.299102     -0.294498     -0.458279 
 C2102  C    -0.205502     -0.041721     -0.299102 
 C2103  C    -0.299102     -0.205502     -0.041721 
 C2104  C    -0.044498     -0.291721     -0.450898 
 C2105  C    -0.450898     -0.044498     -0.291721 
 C2106  C    -0.294498     -0.458279     -0.299102 
 C2107  C    -0.450898     -0.455502     -0.208279 
 C2108  C    -0.291721     -0.450898     -0.044498 
 C2109  C    -0.208279     -0.450898     -0.455502 
 C2110  C    -0.041721     -0.299102     -0.205502 
 C2111  C    -0.458279     -0.299102     -0.294498 
 C2112  C    -0.158411     -0.053480     -0.185028 
 C2113  C    -0.095261     -0.064217     -0.303189 
 C2114  C    -0.158411     -0.446520     -0.314972 
 C2115  C    -0.095261     -0.435783     -0.196811 
 C2116  C    -0.091589     -0.196520     -0.435028 
 C2117  C    -0.154739     -0.314217     -0.446811 
 C2118  C    -0.091589     -0.303480     -0.064972 
 C2119  C    -0.154739     -0.185783     -0.053189 
 C2120  C    -0.196520     -0.435028     -0.091589 
 C2121  C    -0.053189     -0.154739     -0.185783 
 C2122  C    -0.446520     -0.314972     -0.158411 
 C2123  C    -0.303189     -0.095261     -0.064217 
 C2124  C    -0.303480     -0.064972     -0.091589 
 C2125  C    -0.446811     -0.154739     -0.314217 
 C2126  C    -0.053480     -0.185028     -0.158411 
 C2127  C    -0.196811     -0.095261     -0.435783 
 C2128  C    -0.064972     -0.091589     -0.303480 
 C2129  C    -0.185028     -0.158411     -0.053480 
 C2130  C    -0.314217     -0.446811     -0.154739 
 C2131  C    -0.435028     -0.091589     -0.196520 
 C2132  C    -0.064217     -0.303189     -0.095261 
 C2133  C    -0.314972     -0.158411     -0.446520 
 C2134  C    -0.185783     -0.053189     -0.154739 
 C2135  C    -0.435783     -0.196811     -0.095261 
 C2136  C    -0.190603     -0.497489     -0.187142 
 C2137  C    -0.062858     -0.059397     -0.247489 
 C2138  C    -0.440603     -0.252511     -0.062858 
 C2139  C    -0.062858     -0.440603     -0.252511 
 C2140  C    -0.309397     -0.002511     -0.187142 
 C2141  C    -0.187142     -0.309397     -0.002511 
 C2142  C    -0.059397     -0.247489     -0.062858 
 C2143  C    -0.187142     -0.190603     -0.497489 
 C2144  C    -0.002511     -0.187142     -0.309397 
 C2145  C    -0.497489     -0.187142     -0.190603 
 C2146  C    -0.252511     -0.062858     -0.440603 
 C2147  C    -0.247489     -0.062858     -0.059397 
 C2148  C    -0.205502     -0.458279     -0.200898 
 C2149  C    -0.049102     -0.044498     -0.208279 
 C2150  C    -0.455502     -0.291721     -0.049102 
 C2151  C    -0.049102     -0.455502     -0.291721 
 C2152  C    -0.294498     -0.041721     -0.200898 
 C2153  C    -0.200898     -0.294498     -0.041721 
 C2154  C    -0.044498     -0.208279     -0.049102 
 C2155  C    -0.200898     -0.205502     -0.458279 
 C2156  C    -0.041721     -0.200898     -0.294498 
 C2157  C    -0.458279     -0.200898     -0.205502 
 C2158  C    -0.291721     -0.049102     -0.455502 
 C2159  C    -0.208279     -0.049102     -0.044498 
 N2160  N    -0.411552     -0.268150     -0.455263 
 N2161  N    -0.343830     -0.294136     -0.017694 
 N2162  N    -0.411552     -0.231850     -0.044737 
 N2163  N    -0.343830     -0.205864     -0.482306 
 N2164  N    -0.338448     -0.481850     -0.205263 
 N2165  N    -0.406170     -0.044136     -0.232306 
 N2166  N    -0.338448     -0.018150     -0.294737 
 N2167  N    -0.406170     -0.455864     -0.267694 
 N2168  N    -0.481850     -0.205263     -0.338448 
 N2169  N    -0.267694     -0.406170     -0.455864 
 N2170  N    -0.231850     -0.044737     -0.411552 
 N2171  N    -0.017694     -0.343830     -0.294136 
 N2172  N    -0.018150     -0.294737     -0.338448 
 N2173  N    -0.232306     -0.406170     -0.044136 
 N2174  N    -0.268150     -0.455263     -0.411552 
 N2175  N    -0.482306     -0.343830     -0.205864 
 N2176  N    -0.294737     -0.338448     -0.018150 
 N2177  N    -0.455263     -0.411552     -0.268150 
 N2178  N    -0.044136     -0.232306     -0.406170 
 N2179  N    -0.205263     -0.338448     -0.481850 
 N2180  N    -0.294136     -0.017694     -0.343830 
 N2181  N    -0.044737     -0.411552     -0.231850 
 N2182  N    -0.455864     -0.267694     -0.406170 
 N2183  N    -0.205864     -0.482306     -0.343830 
 N2184  N    -0.161552     -0.018150     -0.205263 
 N2185  N    -0.093830     -0.044136     -0.267694 
 N2186  N    -0.161552     -0.481850     -0.294737 
 N2187  N    -0.093830     -0.455864     -0.232306 
 N2188  N    -0.088448     -0.231850     -0.455263 
 N2189  N    -0.156170     -0.294136     -0.482306 
 N2190  N    -0.088448     -0.268150     -0.044737 
 N2191  N    -0.156170     -0.205864     -0.017694 
 N2192  N    -0.231850     -0.455263     -0.088448 
 N2193  N    -0.017694     -0.156170     -0.205864 
 N2194  N    -0.481850     -0.294737     -0.161552 
 N2195  N    -0.267694     -0.093830     -0.044136 
 N2196  N    -0.268150     -0.044737     -0.088448 
 N2197  N    -0.482306     -0.156170     -0.294136 
 N2198  N    -0.018150     -0.205263     -0.161552 
 N2199  N    -0.232306     -0.093830     -0.455864 
 N2200  N    -0.044737     -0.088448     -0.268150 
 N2201  N    -0.205263     -0.161552     -0.018150 
 N2202  N    -0.294136     -0.482306     -0.156170 
 N2203  N    -0.455263     -0.088448     -0.231850 
 N2204  N    -0.044136     -0.267694     -0.093830 
 N2205  N    -0.294737     -0.161552     -0.481850 
 N2206  N    -0.205864     -0.017694     -0.156170 
 N2207  N    -0.455864     -0.232306     -0.093830 
loop_  
_geom_bond_atom_site_label_1  
_geom_bond_atom_site_label_2  
Zn0   N228 
Zn0   N1333 
Zn0   N1334 
Zn0   N231 
Zn1   N232 
Zn1   N785 
Zn1   N786 
Zn1   N235 
Zn2   N236 
Zn2   N516 
Zn2   N522 
Zn2   N250 
Zn3   N237 
Zn3   N1345 
Zn3   N1348 
Zn3   N247 
Zn4   N790 
Zn4   N242 
Zn4   N800 
Zn4   N251 
Zn5   N515 
Zn5   N243 
Zn5   N245 
Zn5   N525 
Zn6   N804 
Zn6   N805 
Zn6   N254 
Zn6   N255 
Zn7   N256 
Zn7   N257 
Zn7   N1362 
Zn7   N1363 
Zn8   N260 
Zn8   N816 
Zn8   N270 
Zn8   N826 
Zn9   N537 
Zn9   N265 
Zn9   N544 
Zn9   N271 
Zn10   N262 
Zn10   N542 
Zn10   N548 
Zn10   N275 
Zn11   N1367 
Zn11   N267 
Zn11   N1373 
Zn11   N273 
H12   C179 
H13   C224 
H14   C177 
H15   C178 
H16   C221 
H17   C174 
H18   C175 
H19   C220 
H20   C171 
H21   C168 
H22   C169 
H23   C170 
H24   C179 
H25   C176 
H26   C177 
H27   C226 
H28   C176 
H29   C177 
H30   C178 
H31   C179 
H32   C173 
H33   C174 
H34   C175 
H35   C172 
H36   C171 
H37   C168 
H38   C169 
H39   C218 
H40   C170 
H41   C174 
H42   C175 
H43   C172 
H44   C173 
H45   C168 
H46   C169 
H47   C219 
H48   C132 
H49   C133 
H50   C134 
H51   C135 
H52   C136 
H53   C137 
H54   C138 
H55   C139 
H56   C140 
H57   C141 
H58   C142 
H59   C143 
H60   C144 
H61   C145 
H62   C146 
H63   C147 
H64   C148 
H65   C149 
H66   C150 
H67   C151 
H68   C152 
H69   C153 
H70   C154 
H71   C155 
H72   C227 
H73   C176 
H74   C225 
H75   C226 
H76   C173 
H77   C222 
H78   C223 
H79   C172 
H80   C219 
H81   C216 
H82   C217 
H83   C218 
H84   C227 
H85   C224 
H86   C225 
H87   C178 
H88   C224 
H89   C225 
H90   C226 
H91   C227 
H92   C221 
H93   C222 
H94   C223 
H95   C220 
H96   C219 
H97   C216 
H98   C217 
H99   C170 
H100   C218 
H101   C222 
H102   C223 
H103   C220 
H104   C221 
H105   C216 
H106   C217 
H107   C171 
H108   C180 
H109   C181 
H110   C182 
H111   C183 
H112   C184 
H113   C185 
H114   C186 
H115   C187 
H116   C188 
H117   C189 
H118   C190 
H119   C191 
H120   C192 
H121   C193 
H122   C194 
H123   C195 
H124   C196 
H125   C197 
H126   C198 
H127   C199 
H128   C200 
H129   C201 
H130   C202 
H131   C203 
C132   C154 
C132   N228 
C133   C148 
C133   N229 
C134   C203 
C134   N230 
C135   C201 
C135   N231 
C136   C198 
C136   N232 
C137   C199 
C137   N233 
C138   C152 
C138   N234 
C139   C149 
C139   N235 
C140   C193 
C140   N236 
C141   C146 
C141   N237 
C142   C195 
C142   N238 
C143   C144 
C143   N239 
C144   N240 
C145   C188 
C145   N241 
C146   N242 
C147   C190 
C147   N243 
C148   N244 
C149   N245 
C150   C184 
C150   N246 
C151   C185 
C151   N247 
C152   N248 
C153   C183 
C153   N249 
C154   N250 
C155   C182 
C155   N251 
C156   C168 
C156   N228 
C156   N250 
C157   C169 
C157   N1333 
C157   N1348 
C158   C170 
C158   N803 
C158   N806 
C159   C171 
C159   N1335 
C159   N1377 
C160   C172 
C160   N246 
C160   N256 
C161   C173 
C161   N233 
C161   N271 
C162   C174 
C162   N786 
C162   N800 
C163   C175 
C163   N235 
C163   N245 
C164   C176 
C164   N241 
C164   N260 
C165   C177 
C165   N237 
C165   N242 
C166   C178 
C166   N519 
C166   N538 
C167   C179 
C167   N515 
C167   N516 
C180   C202 
C180   N252 
C181   C196 
C181   N253 
C182   N254 
C183   N255 
C184   N256 
C185   N257 
C186   C200 
C186   N258 
C187   C197 
C187   N259 
C188   N260 
C189   C194 
C189   N261 
C190   N262 
C191   C192 
C191   N263 
C192   N264 
C193   N265 
C194   N266 
C195   N267 
C196   N268 
C197   N269 
C198   N270 
C199   N271 
C200   N272 
C201   N273 
C202   N274 
C203   N275 
C204   C216 
C204   N804 
C204   N826 
C205   C217 
C205   N253 
C205   N268 
C206   C218 
C206   N230 
C206   N275 
C207   C219 
C207   N249 
C207   N255 
C208   C220 
C208   N784 
C208   N822 
C209   C221 
C209   N1351 
C209   N1361 
C210   C222 
C210   N258 
C210   N272 
C211   C223 
C211   N1363 
C211   N1373 
C212   C224 
C212   N512 
C212   N541 
C213   C225 
C213   N537 
C213   N542 
C214   C226 
C214   N238 
C214   N267 
C215   C227 
C215   N263 
C215   N264 
N229   Zn1104 
N229   C1261 
N230   Zn1104 
N231   C1263 
N232   C760 
N233   Zn553 
N234   Zn553 
N234   C714 
N236   C488 
N238   Zn556 
N239   Zn281 
N239   C443 
N240   Zn278 
N240   C443 
N241   Zn1107 
N243   C442 
N244   Zn1107 
N244   C1261 
N246   Zn278 
N247   C1313 
N248   Zn556 
N248   C714 
N249   Zn281 
N251   C710 
N252   Zn558 
N252   C756 
N253   Zn558 
N254   C710 
N257   C1313 
N258   Zn1111 
N259   Zn1111 
N259   C1315 
N261   Zn285 
N261   C489 
N262   C442 
N263   Zn1115 
N264   Zn560 
N265   C488 
N266   Zn286 
N266   C489 
N268   Zn285 
N269   Zn1115 
N269   C1315 
N270   C760 
N272   Zn286 
N273   C1263 
N274   Zn560 
N274   C756 
Zn276   N504 
Zn276   N1609 
Zn276   N1610 
Zn276   N507 
Zn277   N508 
Zn277   N1061 
Zn277   N1062 
Zn277   N511 
Zn278   N512 
Zn278   N526 
Zn279   N513 
Zn279   N1621 
Zn279   N1624 
Zn279   N523 
Zn280   N1066 
Zn280   N518 
Zn280   N1076 
Zn280   N527 
Zn281   N519 
Zn281   N521 
Zn282   N1080 
Zn282   N1081 
Zn282   N530 
Zn282   N531 
Zn283   N532 
Zn283   N533 
Zn283   N1638 
Zn283   N1639 
Zn284   N536 
Zn284   N1092 
Zn284   N546 
Zn284   N1102 
Zn285   N541 
Zn285   N547 
Zn286   N538 
Zn286   N551 
Zn287   N1643 
Zn287   N543 
Zn287   N1649 
Zn287   N549 
H288   C455 
H289   C500 
H290   C453 
H291   C454 
H292   C497 
H293   C450 
H294   C451 
H295   C496 
H296   C447 
H297   C444 
H298   C445 
H299   C446 
H300   C455 
H301   C452 
H302   C453 
H303   C502 
H304   C452 
H305   C453 
H306   C454 
H307   C455 
H308   C449 
H309   C450 
H310   C451 
H311   C448 
H312   C447 
H313   C444 
H314   C445 
H315   C494 
H316   C446 
H317   C450 
H318   C451 
H319   C448 
H320   C449 
H321   C444 
H322   C445 
H323   C495 
H324   C408 
H325   C409 
H326   C410 
H327   C411 
H328   C412 
H329   C413 
H330   C414 
H331   C415 
H332   C416 
H333   C417 
H334   C418 
H335   C419 
H336   C420 
H337   C421 
H338   C422 
H339   C423 
H340   C424 
H341   C425 
H342   C426 
H343   C427 
H344   C428 
H345   C429 
H346   C430 
H347   C431 
H348   C503 
H349   C452 
H350   C501 
H351   C502 
H352   C449 
H353   C498 
H354   C499 
H355   C448 
H356   C495 
H357   C492 
H358   C493 
H359   C494 
H360   C503 
H361   C500 
H362   C501 
H363   C454 
H364   C500 
H365   C501 
H366   C502 
H367   C503 
H368   C497 
H369   C498 
H370   C499 
H371   C496 
H372   C495 
H373   C492 
H374   C493 
H375   C446 
H376   C494 
H377   C498 
H378   C499 
H379   C496 
H380   C497 
H381   C492 
H382   C493 
H383   C447 
H384   C456 
H385   C457 
H386   C458 
H387   C459 
H388   C460 
H389   C461 
H390   C462 
H391   C463 
H392   C464 
H393   C465 
H394   C466 
H395   C467 
H396   C468 
H397   C469 
H398   C470 
H399   C471 
H400   C472 
H401   C473 
H402   C474 
H403   C475 
H404   C476 
H405   C477 
H406   C478 
H407   C479 
C408   C430 
C408   N504 
C409   C424 
C409   N505 
C410   C479 
C410   N506 
C411   C477 
C411   N507 
C412   C474 
C412   N508 
C413   C475 
C413   N509 
C414   C428 
C414   N510 
C415   C425 
C415   N511 
C416   C469 
C416   N512 
C417   C422 
C417   N513 
C418   C471 
C418   N514 
C419   C420 
C419   N515 
C420   N516 
C421   C464 
C421   N517 
C422   N518 
C423   C466 
C423   N519 
C424   N520 
C425   N521 
C426   C460 
C426   N522 
C427   C461 
C427   N523 
C428   N524 
C429   C459 
C429   N525 
C430   N526 
C431   C458 
C431   N527 
C432   C444 
C432   N504 
C432   N526 
C433   C445 
C433   N1609 
C433   N1624 
C434   C446 
C434   N1079 
C434   N1082 
C435   C447 
C435   N1611 
C435   N1653 
C436   C448 
C436   N522 
C436   N532 
C437   C449 
C437   N509 
C437   N547 
C438   C450 
C438   N1062 
C438   N1076 
C439   C451 
C439   N511 
C439   N521 
C440   C452 
C440   N517 
C440   N536 
C441   C453 
C441   N513 
C441   N518 
C442   C454 
C443   C455 
C456   C478 
C456   N528 
C457   C472 
C457   N529 
C458   N530 
C459   N531 
C460   N532 
C461   N533 
C462   C476 
C462   N534 
C463   C473 
C463   N535 
C464   N536 
C465   C470 
C465   N537 
C466   N538 
C467   C468 
C467   N539 
C468   N540 
C469   N541 
C470   N542 
C471   N543 
C472   N544 
C473   N545 
C474   N546 
C475   N547 
C476   N548 
C477   N549 
C478   N550 
C479   N551 
C480   C492 
C480   N1080 
C480   N1102 
C481   C493 
C481   N529 
C481   N544 
C482   C494 
C482   N506 
C482   N551 
C483   C495 
C483   N525 
C483   N531 
C484   C496 
C484   N1060 
C484   N1098 
C485   C497 
C485   N1627 
C485   N1637 
C486   C498 
C486   N534 
C486   N548 
C487   C499 
C487   N1639 
C487   N1649 
C488   C500 
C489   C501 
C490   C502 
C490   N514 
C490   N543 
C491   C503 
C491   N539 
C491   N540 
N505   Zn1380 
N505   C1537 
N506   Zn1380 
N507   C1539 
N508   C1036 
N509   Zn829 
N510   Zn829 
N510   C990 
N514   Zn832 
N517   Zn1383 
N520   Zn1383 
N520   C1537 
N523   C1589 
N524   Zn832 
N524   C990 
N527   C986 
N528   Zn834 
N528   C1032 
N529   Zn834 
N530   C986 
N533   C1589 
N534   Zn1387 
N535   Zn1387 
N535   C1591 
N539   Zn1391 
N540   Zn836 
N545   Zn1391 
N545   C1591 
N546   C1036 
N549   C1539 
N550   Zn836 
N550   C1032 
Zn552   N780 
Zn552   N1885 
Zn552   N1886 
Zn552   N783 
Zn553   N784 
Zn553   N787 
Zn554   N788 
Zn554   N1068 
Zn554   N1074 
Zn554   N802 
Zn555   N789 
Zn555   N1897 
Zn555   N1900 
Zn555   N799 
Zn556   N794 
Zn556   N803 
Zn557   N1067 
Zn557   N795 
Zn557   N797 
Zn557   N1077 
Zn558   N806 
Zn558   N807 
Zn559   N808 
Zn559   N809 
Zn559   N1914 
Zn559   N1915 
Zn560   N812 
Zn560   N822 
Zn561   N1089 
Zn561   N817 
Zn561   N1096 
Zn561   N823 
Zn562   N814 
Zn562   N1094 
Zn562   N1100 
Zn562   N827 
Zn563   N1919 
Zn563   N819 
Zn563   N1925 
Zn563   N825 
H564   C731 
H565   C776 
H566   C729 
H567   C730 
H568   C773 
H569   C726 
H570   C727 
H571   C772 
H572   C723 
H573   C720 
H574   C721 
H575   C722 
H576   C731 
H577   C728 
H578   C729 
H579   C778 
H580   C728 
H581   C729 
H582   C730 
H583   C731 
H584   C725 
H585   C726 
H586   C727 
H587   C724 
H588   C723 
H589   C720 
H590   C721 
H591   C770 
H592   C722 
H593   C726 
H594   C727 
H595   C724 
H596   C725 
H597   C720 
H598   C721 
H599   C771 
H600   C684 
H601   C685 
H602   C686 
H603   C687 
H604   C688 
H605   C689 
H606   C690 
H607   C691 
H608   C692 
H609   C693 
H610   C694 
H611   C695 
H612   C696 
H613   C697 
H614   C698 
H615   C699 
H616   C700 
H617   C701 
H618   C702 
H619   C703 
H620   C704 
H621   C705 
H622   C706 
H623   C707 
H624   C779 
H625   C728 
H626   C777 
H627   C778 
H628   C725 
H629   C774 
H630   C775 
H631   C724 
H632   C771 
H633   C768 
H634   C769 
H635   C770 
H636   C779 
H637   C776 
H638   C777 
H639   C730 
H640   C776 
H641   C777 
H642   C778 
H643   C779 
H644   C773 
H645   C774 
H646   C775 
H647   C772 
H648   C771 
H649   C768 
H650   C769 
H651   C722 
H652   C770 
H653   C774 
H654   C775 
H655   C772 
H656   C773 
H657   C768 
H658   C769 
H659   C723 
H660   C732 
H661   C733 
H662   C734 
H663   C735 
H664   C736 
H665   C737 
H666   C738 
H667   C739 
H668   C740 
H669   C741 
H670   C742 
H671   C743 
H672   C744 
H673   C745 
H674   C746 
H675   C747 
H676   C748 
H677   C749 
H678   C750 
H679   C751 
H680   C752 
H681   C753 
H682   C754 
H683   C755 
C684   C706 
C684   N780 
C685   C700 
C685   N781 
C686   C755 
C686   N782 
C687   C753 
C687   N783 
C688   C750 
C688   N784 
C689   C751 
C689   N785 
C690   C704 
C690   N786 
C691   C701 
C691   N787 
C692   C745 
C692   N788 
C693   C698 
C693   N789 
C694   C747 
C694   N790 
C695   C696 
C695   N791 
C696   N792 
C697   C740 
C697   N793 
C698   N794 
C699   C742 
C699   N795 
C700   N796 
C701   N797 
C702   C736 
C702   N798 
C703   C737 
C703   N799 
C704   N800 
C705   C735 
C705   N801 
C706   N802 
C707   C734 
C707   N803 
C708   C720 
C708   N780 
C708   N802 
C709   C721 
C709   N1885 
C709   N1900 
C710   C722 
C711   C723 
C711   N1887 
C711   N1929 
C712   C724 
C712   N798 
C712   N808 
C713   C725 
C713   N785 
C713   N823 
C714   C726 
C715   C727 
C715   N787 
C715   N797 
C716   C728 
C716   N793 
C716   N812 
C717   C729 
C717   N789 
C717   N794 
C718   C730 
C718   N1071 
C718   N1090 
C719   C731 
C719   N1067 
C719   N1068 
C732   C754 
C732   N804 
C733   C748 
C733   N805 
C734   N806 
C735   N807 
C736   N808 
C737   N809 
C738   C752 
C738   N810 
C739   C749 
C739   N811 
C740   N812 
C741   C746 
C741   N813 
C742   N814 
C743   C744 
C743   N815 
C744   N816 
C745   N817 
C746   N818 
C747   N819 
C748   N820 
C749   N821 
C750   N822 
C751   N823 
C752   N824 
C753   N825 
C754   N826 
C755   N827 
C756   C768 
C757   C769 
C757   N805 
C757   N820 
C758   C770 
C758   N782 
C758   N827 
C759   C771 
C759   N801 
C759   N807 
C760   C772 
C761   C773 
C761   N1903 
C761   N1913 
C762   C774 
C762   N810 
C762   N824 
C763   C775 
C763   N1915 
C763   N1925 
C764   C776 
C764   N1064 
C764   N1093 
C765   C777 
C765   N1089 
C765   N1094 
C766   C778 
C766   N790 
C766   N819 
C767   C779 
C767   N815 
C767   N816 
N781   Zn1656 
N781   C1813 
N782   Zn1656 
N783   C1815 
N788   C1040 
N791   Zn833 
N791   C995 
N792   Zn830 
N792   C995 
N793   Zn1659 
N795   C994 
N796   Zn1659 
N796   C1813 
N798   Zn830 
N799   C1865 
N801   Zn833 
N809   C1865 
N810   Zn1663 
N811   Zn1663 
N811   C1867 
N813   Zn837 
N813   C1041 
N814   C994 
N815   Zn1667 
N817   C1040 
N818   Zn838 
N818   C1041 
N820   Zn837 
N821   Zn1667 
N821   C1867 
N824   Zn838 
N825   C1815 
Zn828   N1056 
Zn828   N2161 
Zn828   N2162 
Zn828   N1059 
Zn829   N1060 
Zn829   N1063 
Zn830   N1064 
Zn830   N1078 
Zn831   N1065 
Zn831   N2173 
Zn831   N2176 
Zn831   N1075 
Zn832   N1070 
Zn832   N1079 
Zn833   N1071 
Zn833   N1073 
Zn834   N1082 
Zn834   N1083 
Zn835   N1084 
Zn835   N1085 
Zn835   N2190 
Zn835   N2191 
Zn836   N1088 
Zn836   N1098 
Zn837   N1093 
Zn837   N1099 
Zn838   N1090 
Zn838   N1103 
Zn839   N2195 
Zn839   N1095 
Zn839   N2201 
Zn839   N1101 
H840   C1007 
H841   C1052 
H842   C1005 
H843   C1006 
H844   C1049 
H845   C1002 
H846   C1003 
H847   C1048 
H848   C999 
H849   C996 
H850   C997 
H851   C998 
H852   C1007 
H853   C1004 
H854   C1005 
H855   C1054 
H856   C1004 
H857   C1005 
H858   C1006 
H859   C1007 
H860   C1001 
H861   C1002 
H862   C1003 
H863   C1000 
H864   C999 
H865   C996 
H866   C997 
H867   C1046 
H868   C998 
H869   C1002 
H870   C1003 
H871   C1000 
H872   C1001 
H873   C996 
H874   C997 
H875   C1047 
H876   C960 
H877   C961 
H878   C962 
H879   C963 
H880   C964 
H881   C965 
H882   C966 
H883   C967 
H884   C968 
H885   C969 
H886   C970 
H887   C971 
H888   C972 
H889   C973 
H890   C974 
H891   C975 
H892   C976 
H893   C977 
H894   C978 
H895   C979 
H896   C980 
H897   C981 
H898   C982 
H899   C983 
H900   C1055 
H901   C1004 
H902   C1053 
H903   C1054 
H904   C1001 
H905   C1050 
H906   C1051 
H907   C1000 
H908   C1047 
H909   C1044 
H910   C1045 
H911   C1046 
H912   C1055 
H913   C1052 
H914   C1053 
H915   C1006 
H916   C1052 
H917   C1053 
H918   C1054 
H919   C1055 
H920   C1049 
H921   C1050 
H922   C1051 
H923   C1048 
H924   C1047 
H925   C1044 
H926   C1045 
H927   C998 
H928   C1046 
H929   C1050 
H930   C1051 
H931   C1048 
H932   C1049 
H933   C1044 
H934   C1045 
H935   C999 
H936   C1008 
H937   C1009 
H938   C1010 
H939   C1011 
H940   C1012 
H941   C1013 
H942   C1014 
H943   C1015 
H944   C1016 
H945   C1017 
H946   C1018 
H947   C1019 
H948   C1020 
H949   C1021 
H950   C1022 
H951   C1023 
H952   C1024 
H953   C1025 
H954   C1026 
H955   C1027 
H956   C1028 
H957   C1029 
H958   C1030 
H959   C1031 
C960   C982 
C960   N1056 
C961   C976 
C961   N1057 
C962   C1031 
C962   N1058 
C963   C1029 
C963   N1059 
C964   C1026 
C964   N1060 
C965   C1027 
C965   N1061 
C966   C980 
C966   N1062 
C967   C977 
C967   N1063 
C968   C1021 
C968   N1064 
C969   C974 
C969   N1065 
C970   C1023 
C970   N1066 
C971   C972 
C971   N1067 
C972   N1068 
C973   C1016 
C973   N1069 
C974   N1070 
C975   C1018 
C975   N1071 
C976   N1072 
C977   N1073 
C978   C1012 
C978   N1074 
C979   C1013 
C979   N1075 
C980   N1076 
C981   C1011 
C981   N1077 
C982   N1078 
C983   C1010 
C983   N1079 
C984   C996 
C984   N1056 
C984   N1078 
C985   C997 
C985   N2161 
C985   N2176 
C986   C998 
C987   C999 
C987   N2163 
C987   N2205 
C988   C1000 
C988   N1074 
C988   N1084 
C989   C1001 
C989   N1061 
C989   N1099 
C990   C1002 
C991   C1003 
C991   N1063 
C991   N1073 
C992   C1004 
C992   N1069 
C992   N1088 
C993   C1005 
C993   N1065 
C993   N1070 
C994   C1006 
C995   C1007 
C1008   C1030 
C1008   N1080 
C1009   C1024 
C1009   N1081 
C1010   N1082 
C1011   N1083 
C1012   N1084 
C1013   N1085 
C1014   C1028 
C1014   N1086 
C1015   C1025 
C1015   N1087 
C1016   N1088 
C1017   C1022 
C1017   N1089 
C1018   N1090 
C1019   C1020 
C1019   N1091 
C1020   N1092 
C1021   N1093 
C1022   N1094 
C1023   N1095 
C1024   N1096 
C1025   N1097 
C1026   N1098 
C1027   N1099 
C1028   N1100 
C1029   N1101 
C1030   N1102 
C1031   N1103 
C1032   C1044 
C1033   C1045 
C1033   N1081 
C1033   N1096 
C1034   C1046 
C1034   N1058 
C1034   N1103 
C1035   C1047 
C1035   N1077 
C1035   N1083 
C1036   C1048 
C1037   C1049 
C1037   N2179 
C1037   N2189 
C1038   C1050 
C1038   N1086 
C1038   N1100 
C1039   C1051 
C1039   N2191 
C1039   N2201 
C1040   C1052 
C1041   C1053 
C1042   C1054 
C1042   N1066 
C1042   N1095 
C1043   C1055 
C1043   N1091 
C1043   N1092 
N1057   Zn1932 
N1057   C2089 
N1058   Zn1932 
N1059   C2091 
N1069   Zn1935 
N1072   Zn1935 
N1072   C2089 
N1075   C2141 
N1085   C2141 
N1086   Zn1939 
N1087   Zn1939 
N1087   C2143 
N1091   Zn1943 
N1097   Zn1943 
N1097   C2143 
N1101   C2091 
Zn1104   N1332 
Zn1104   N1335 
Zn1105   N1336 
Zn1105   N1889 
Zn1105   N1890 
Zn1105   N1339 
Zn1106   N1340 
Zn1106   N1620 
Zn1106   N1626 
Zn1106   N1354 
Zn1107   N1341 
Zn1107   N1351 
Zn1108   N1894 
Zn1108   N1346 
Zn1108   N1904 
Zn1108   N1355 
Zn1109   N1619 
Zn1109   N1347 
Zn1109   N1349 
Zn1109   N1629 
Zn1110   N1908 
Zn1110   N1909 
Zn1110   N1358 
Zn1110   N1359 
Zn1111   N1360 
Zn1111   N1361 
Zn1112   N1364 
Zn1112   N1920 
Zn1112   N1374 
Zn1112   N1930 
Zn1113   N1641 
Zn1113   N1369 
Zn1113   N1648 
Zn1113   N1375 
Zn1114   N1366 
Zn1114   N1646 
Zn1114   N1652 
Zn1114   N1379 
Zn1115   N1371 
Zn1115   N1377 
H1116   C1283 
H1117   C1328 
H1118   C1281 
H1119   C1282 
H1120   C1325 
H1121   C1278 
H1122   C1279 
H1123   C1324 
H1124   C1275 
H1125   C1272 
H1126   C1273 
H1127   C1274 
H1128   C1283 
H1129   C1280 
H1130   C1281 
H1131   C1330 
H1132   C1280 
H1133   C1281 
H1134   C1282 
H1135   C1283 
H1136   C1277 
H1137   C1278 
H1138   C1279 
H1139   C1276 
H1140   C1275 
H1141   C1272 
H1142   C1273 
H1143   C1322 
H1144   C1274 
H1145   C1278 
H1146   C1279 
H1147   C1276 
H1148   C1277 
H1149   C1272 
H1150   C1273 
H1151   C1323 
H1152   C1236 
H1153   C1237 
H1154   C1238 
H1155   C1239 
H1156   C1240 
H1157   C1241 
H1158   C1242 
H1159   C1243 
H1160   C1244 
H1161   C1245 
H1162   C1246 
H1163   C1247 
H1164   C1248 
H1165   C1249 
H1166   C1250 
H1167   C1251 
H1168   C1252 
H1169   C1253 
H1170   C1254 
H1171   C1255 
H1172   C1256 
H1173   C1257 
H1174   C1258 
H1175   C1259 
H1176   C1331 
H1177   C1280 
H1178   C1329 
H1179   C1330 
H1180   C1277 
H1181   C1326 
H1182   C1327 
H1183   C1276 
H1184   C1323 
H1185   C1320 
H1186   C1321 
H1187   C1322 
H1188   C1331 
H1189   C1328 
H1190   C1329 
H1191   C1282 
H1192   C1328 
H1193   C1329 
H1194   C1330 
H1195   C1331 
H1196   C1325 
H1197   C1326 
H1198   C1327 
H1199   C1324 
H1200   C1323 
H1201   C1320 
H1202   C1321 
H1203   C1274 
H1204   C1322 
H1205   C1326 
H1206   C1327 
H1207   C1324 
H1208   C1325 
H1209   C1320 
H1210   C1321 
H1211   C1275 
H1212   C1284 
H1213   C1285 
H1214   C1286 
H1215   C1287 
H1216   C1288 
H1217   C1289 
H1218   C1290 
H1219   C1291 
H1220   C1292 
H1221   C1293 
H1222   C1294 
H1223   C1295 
H1224   C1296 
H1225   C1297 
H1226   C1298 
H1227   C1299 
H1228   C1300 
H1229   C1301 
H1230   C1302 
H1231   C1303 
H1232   C1304 
H1233   C1305 
H1234   C1306 
H1235   C1307 
C1236   C1258 
C1236   N1332 
C1237   C1252 
C1237   N1333 
C1238   C1307 
C1238   N1334 
C1239   C1305 
C1239   N1335 
C1240   C1302 
C1240   N1336 
C1241   C1303 
C1241   N1337 
C1242   C1256 
C1242   N1338 
C1243   C1253 
C1243   N1339 
C1244   C1297 
C1244   N1340 
C1245   C1250 
C1245   N1341 
C1246   C1299 
C1246   N1342 
C1247   C1248 
C1247   N1343 
C1248   N1344 
C1249   C1292 
C1249   N1345 
C1250   N1346 
C1251   C1294 
C1251   N1347 
C1252   N1348 
C1253   N1349 
C1254   C1288 
C1254   N1350 
C1255   C1289 
C1255   N1351 
C1256   N1352 
C1257   C1287 
C1257   N1353 
C1258   N1354 
C1259   C1286 
C1259   N1355 
C1260   C1272 
C1260   N1332 
C1260   N1354 
C1261   C1273 
C1262   C1274 
C1262   N1907 
C1262   N1910 
C1263   C1275 
C1264   C1276 
C1264   N1350 
C1264   N1360 
C1265   C1277 
C1265   N1337 
C1265   N1375 
C1266   C1278 
C1266   N1890 
C1266   N1904 
C1267   C1279 
C1267   N1339 
C1267   N1349 
C1268   C1280 
C1268   N1345 
C1268   N1364 
C1269   C1281 
C1269   N1341 
C1269   N1346 
C1270   C1282 
C1270   N1623 
C1270   N1642 
C1271   C1283 
C1271   N1619 
C1271   N1620 
C1284   C1306 
C1284   N1356 
C1285   C1300 
C1285   N1357 
C1286   N1358 
C1287   N1359 
C1288   N1360 
C1289   N1361 
C1290   C1304 
C1290   N1362 
C1291   C1301 
C1291   N1363 
C1292   N1364 
C1293   C1298 
C1293   N1365 
C1294   N1366 
C1295   C1296 
C1295   N1367 
C1296   N1368 
C1297   N1369 
C1298   N1370 
C1299   N1371 
C1300   N1372 
C1301   N1373 
C1302   N1374 
C1303   N1375 
C1304   N1376 
C1305   N1377 
C1306   N1378 
C1307   N1379 
C1308   C1320 
C1308   N1908 
C1308   N1930 
C1309   C1321 
C1309   N1357 
C1309   N1372 
C1310   C1322 
C1310   N1334 
C1310   N1379 
C1311   C1323 
C1311   N1353 
C1311   N1359 
C1312   C1324 
C1312   N1888 
C1312   N1926 
C1313   C1325 
C1314   C1326 
C1314   N1362 
C1314   N1376 
C1315   C1327 
C1316   C1328 
C1316   N1616 
C1316   N1645 
C1317   C1329 
C1317   N1641 
C1317   N1646 
C1318   C1330 
C1318   N1342 
C1318   N1371 
C1319   C1331 
C1319   N1367 
C1319   N1368 
N1336   C1864 
N1337   Zn1657 
N1338   Zn1657 
N1338   C1818 
N1340   C1592 
N1342   Zn1660 
N1343   Zn1385 
N1343   C1547 
N1344   Zn1382 
N1344   C1547 
N1347   C1546 
N1350   Zn1382 
N1352   Zn1660 
N1352   C1818 
N1353   Zn1385 
N1355   C1814 
N1356   Zn1662 
N1356   C1860 
N1357   Zn1662 
N1358   C1814 
N1365   Zn1389 
N1365   C1593 
N1366   C1546 
N1368   Zn1664 
N1369   C1592 
N1370   Zn1390 
N1370   C1593 
N1372   Zn1389 
N1374   C1864 
N1376   Zn1390 
N1378   Zn1664 
N1378   C1860 
Zn1380   N1608 
Zn1380   N1611 
Zn1381   N1612 
Zn1381   N2165 
Zn1381   N2166 
Zn1381   N1615 
Zn1382   N1616 
Zn1382   N1630 
Zn1383   N1617 
Zn1383   N1627 
Zn1384   N2170 
Zn1384   N1622 
Zn1384   N2180 
Zn1384   N1631 
Zn1385   N1623 
Zn1385   N1625 
Zn1386   N2184 
Zn1386   N2185 
Zn1386   N1634 
Zn1386   N1635 
Zn1387   N1636 
Zn1387   N1637 
Zn1388   N1640 
Zn1388   N2196 
Zn1388   N1650 
Zn1388   N2206 
Zn1389   N1645 
Zn1389   N1651 
Zn1390   N1642 
Zn1390   N1655 
Zn1391   N1647 
Zn1391   N1653 
H1392   C1559 
H1393   C1604 
H1394   C1557 
H1395   C1558 
H1396   C1601 
H1397   C1554 
H1398   C1555 
H1399   C1600 
H1400   C1551 
H1401   C1548 
H1402   C1549 
H1403   C1550 
H1404   C1559 
H1405   C1556 
H1406   C1557 
H1407   C1606 
H1408   C1556 
H1409   C1557 
H1410   C1558 
H1411   C1559 
H1412   C1553 
H1413   C1554 
H1414   C1555 
H1415   C1552 
H1416   C1551 
H1417   C1548 
H1418   C1549 
H1419   C1598 
H1420   C1550 
H1421   C1554 
H1422   C1555 
H1423   C1552 
H1424   C1553 
H1425   C1548 
H1426   C1549 
H1427   C1599 
H1428   C1512 
H1429   C1513 
H1430   C1514 
H1431   C1515 
H1432   C1516 
H1433   C1517 
H1434   C1518 
H1435   C1519 
H1436   C1520 
H1437   C1521 
H1438   C1522 
H1439   C1523 
H1440   C1524 
H1441   C1525 
H1442   C1526 
H1443   C1527 
H1444   C1528 
H1445   C1529 
H1446   C1530 
H1447   C1531 
H1448   C1532 
H1449   C1533 
H1450   C1534 
H1451   C1535 
H1452   C1607 
H1453   C1556 
H1454   C1605 
H1455   C1606 
H1456   C1553 
H1457   C1602 
H1458   C1603 
H1459   C1552 
H1460   C1599 
H1461   C1596 
H1462   C1597 
H1463   C1598 
H1464   C1607 
H1465   C1604 
H1466   C1605 
H1467   C1558 
H1468   C1604 
H1469   C1605 
H1470   C1606 
H1471   C1607 
H1472   C1601 
H1473   C1602 
H1474   C1603 
H1475   C1600 
H1476   C1599 
H1477   C1596 
H1478   C1597 
H1479   C1550 
H1480   C1598 
H1481   C1602 
H1482   C1603 
H1483   C1600 
H1484   C1601 
H1485   C1596 
H1486   C1597 
H1487   C1551 
H1488   C1560 
H1489   C1561 
H1490   C1562 
H1491   C1563 
H1492   C1564 
H1493   C1565 
H1494   C1566 
H1495   C1567 
H1496   C1568 
H1497   C1569 
H1498   C1570 
H1499   C1571 
H1500   C1572 
H1501   C1573 
H1502   C1574 
H1503   C1575 
H1504   C1576 
H1505   C1577 
H1506   C1578 
H1507   C1579 
H1508   C1580 
H1509   C1581 
H1510   C1582 
H1511   C1583 
C1512   C1534 
C1512   N1608 
C1513   C1528 
C1513   N1609 
C1514   C1583 
C1514   N1610 
C1515   C1581 
C1515   N1611 
C1516   C1578 
C1516   N1612 
C1517   C1579 
C1517   N1613 
C1518   C1532 
C1518   N1614 
C1519   C1529 
C1519   N1615 
C1520   C1573 
C1520   N1616 
C1521   C1526 
C1521   N1617 
C1522   C1575 
C1522   N1618 
C1523   C1524 
C1523   N1619 
C1524   N1620 
C1525   C1568 
C1525   N1621 
C1526   N1622 
C1527   C1570 
C1527   N1623 
C1528   N1624 
C1529   N1625 
C1530   C1564 
C1530   N1626 
C1531   C1565 
C1531   N1627 
C1532   N1628 
C1533   C1563 
C1533   N1629 
C1534   N1630 
C1535   C1562 
C1535   N1631 
C1536   C1548 
C1536   N1608 
C1536   N1630 
C1537   C1549 
C1538   C1550 
C1538   N2183 
C1538   N2186 
C1539   C1551 
C1540   C1552 
C1540   N1626 
C1540   N1636 
C1541   C1553 
C1541   N1613 
C1541   N1651 
C1542   C1554 
C1542   N2166 
C1542   N2180 
C1543   C1555 
C1543   N1615 
C1543   N1625 
C1544   C1556 
C1544   N1621 
C1544   N1640 
C1545   C1557 
C1545   N1617 
C1545   N1622 
C1546   C1558 
C1547   C1559 
C1560   C1582 
C1560   N1632 
C1561   C1576 
C1561   N1633 
C1562   N1634 
C1563   N1635 
C1564   N1636 
C1565   N1637 
C1566   C1580 
C1566   N1638 
C1567   C1577 
C1567   N1639 
C1568   N1640 
C1569   C1574 
C1569   N1641 
C1570   N1642 
C1571   C1572 
C1571   N1643 
C1572   N1644 
C1573   N1645 
C1574   N1646 
C1575   N1647 
C1576   N1648 
C1577   N1649 
C1578   N1650 
C1579   N1651 
C1580   N1652 
C1581   N1653 
C1582   N1654 
C1583   N1655 
C1584   C1596 
C1584   N2184 
C1584   N2206 
C1585   C1597 
C1585   N1633 
C1585   N1648 
C1586   C1598 
C1586   N1610 
C1586   N1655 
C1587   C1599 
C1587   N1629 
C1587   N1635 
C1588   C1600 
C1588   N2164 
C1588   N2202 
C1589   C1601 
C1590   C1602 
C1590   N1638 
C1590   N1652 
C1591   C1603 
C1592   C1604 
C1593   C1605 
C1594   C1606 
C1594   N1618 
C1594   N1647 
C1595   C1607 
C1595   N1643 
C1595   N1644 
N1612   C2140 
N1613   Zn1933 
N1614   Zn1933 
N1614   C2094 
N1618   Zn1936 
N1628   Zn1936 
N1628   C2094 
N1631   C2090 
N1632   Zn1938 
N1632   C2136 
N1633   Zn1938 
N1634   C2090 
N1644   Zn1940 
N1650   C2140 
N1654   Zn1940 
N1654   C2136 
Zn1656   N1884 
Zn1656   N1887 
Zn1657   N1888 
Zn1657   N1891 
Zn1658   N1892 
Zn1658   N2172 
Zn1658   N2178 
Zn1658   N1906 
Zn1659   N1893 
Zn1659   N1903 
Zn1660   N1898 
Zn1660   N1907 
Zn1661   N2171 
Zn1661   N1899 
Zn1661   N1901 
Zn1661   N2181 
Zn1662   N1910 
Zn1662   N1911 
Zn1663   N1912 
Zn1663   N1913 
Zn1664   N1916 
Zn1664   N1926 
Zn1665   N2193 
Zn1665   N1921 
Zn1665   N2200 
Zn1665   N1927 
Zn1666   N1918 
Zn1666   N2198 
Zn1666   N2204 
Zn1666   N1931 
Zn1667   N1923 
Zn1667   N1929 
H1668   C1835 
H1669   C1880 
H1670   C1833 
H1671   C1834 
H1672   C1877 
H1673   C1830 
H1674   C1831 
H1675   C1876 
H1676   C1827 
H1677   C1824 
H1678   C1825 
H1679   C1826 
H1680   C1835 
H1681   C1832 
H1682   C1833 
H1683   C1882 
H1684   C1832 
H1685   C1833 
H1686   C1834 
H1687   C1835 
H1688   C1829 
H1689   C1830 
H1690   C1831 
H1691   C1828 
H1692   C1827 
H1693   C1824 
H1694   C1825 
H1695   C1874 
H1696   C1826 
H1697   C1830 
H1698   C1831 
H1699   C1828 
H1700   C1829 
H1701   C1824 
H1702   C1825 
H1703   C1875 
H1704   C1788 
H1705   C1789 
H1706   C1790 
H1707   C1791 
H1708   C1792 
H1709   C1793 
H1710   C1794 
H1711   C1795 
H1712   C1796 
H1713   C1797 
H1714   C1798 
H1715   C1799 
H1716   C1800 
H1717   C1801 
H1718   C1802 
H1719   C1803 
H1720   C1804 
H1721   C1805 
H1722   C1806 
H1723   C1807 
H1724   C1808 
H1725   C1809 
H1726   C1810 
H1727   C1811 
H1728   C1883 
H1729   C1832 
H1730   C1881 
H1731   C1882 
H1732   C1829 
H1733   C1878 
H1734   C1879 
H1735   C1828 
H1736   C1875 
H1737   C1872 
H1738   C1873 
H1739   C1874 
H1740   C1883 
H1741   C1880 
H1742   C1881 
H1743   C1834 
H1744   C1880 
H1745   C1881 
H1746   C1882 
H1747   C1883 
H1748   C1877 
H1749   C1878 
H1750   C1879 
H1751   C1876 
H1752   C1875 
H1753   C1872 
H1754   C1873 
H1755   C1826 
H1756   C1874 
H1757   C1878 
H1758   C1879 
H1759   C1876 
H1760   C1877 
H1761   C1872 
H1762   C1873 
H1763   C1827 
H1764   C1836 
H1765   C1837 
H1766   C1838 
H1767   C1839 
H1768   C1840 
H1769   C1841 
H1770   C1842 
H1771   C1843 
H1772   C1844 
H1773   C1845 
H1774   C1846 
H1775   C1847 
H1776   C1848 
H1777   C1849 
H1778   C1850 
H1779   C1851 
H1780   C1852 
H1781   C1853 
H1782   C1854 
H1783   C1855 
H1784   C1856 
H1785   C1857 
H1786   C1858 
H1787   C1859 
C1788   C1810 
C1788   N1884 
C1789   C1804 
C1789   N1885 
C1790   C1859 
C1790   N1886 
C1791   C1857 
C1791   N1887 
C1792   C1854 
C1792   N1888 
C1793   C1855 
C1793   N1889 
C1794   C1808 
C1794   N1890 
C1795   C1805 
C1795   N1891 
C1796   C1849 
C1796   N1892 
C1797   C1802 
C1797   N1893 
C1798   C1851 
C1798   N1894 
C1799   C1800 
C1799   N1895 
C1800   N1896 
C1801   C1844 
C1801   N1897 
C1802   N1898 
C1803   C1846 
C1803   N1899 
C1804   N1900 
C1805   N1901 
C1806   C1840 
C1806   N1902 
C1807   C1841 
C1807   N1903 
C1808   N1904 
C1809   C1839 
C1809   N1905 
C1810   N1906 
C1811   C1838 
C1811   N1907 
C1812   C1824 
C1812   N1884 
C1812   N1906 
C1813   C1825 
C1814   C1826 
C1815   C1827 
C1816   C1828 
C1816   N1902 
C1816   N1912 
C1817   C1829 
C1817   N1889 
C1817   N1927 
C1818   C1830 
C1819   C1831 
C1819   N1891 
C1819   N1901 
C1820   C1832 
C1820   N1897 
C1820   N1916 
C1821   C1833 
C1821   N1893 
C1821   N1898 
C1822   C1834 
C1822   N2175 
C1822   N2194 
C1823   C1835 
C1823   N2171 
C1823   N2172 
C1836   C1858 
C1836   N1908 
C1837   C1852 
C1837   N1909 
C1838   N1910 
C1839   N1911 
C1840   N1912 
C1841   N1913 
C1842   C1856 
C1842   N1914 
C1843   C1853 
C1843   N1915 
C1844   N1916 
C1845   C1850 
C1845   N1917 
C1846   N1918 
C1847   C1848 
C1847   N1919 
C1848   N1920 
C1849   N1921 
C1850   N1922 
C1851   N1923 
C1852   N1924 
C1853   N1925 
C1854   N1926 
C1855   N1927 
C1856   N1928 
C1857   N1929 
C1858   N1930 
C1859   N1931 
C1860   C1872 
C1861   C1873 
C1861   N1909 
C1861   N1924 
C1862   C1874 
C1862   N1886 
C1862   N1931 
C1863   C1875 
C1863   N1905 
C1863   N1911 
C1864   C1876 
C1865   C1877 
C1866   C1878 
C1866   N1914 
C1866   N1928 
C1867   C1879 
C1868   C1880 
C1868   N2168 
C1868   N2197 
C1869   C1881 
C1869   N2193 
C1869   N2198 
C1870   C1882 
C1870   N1894 
C1870   N1923 
C1871   C1883 
C1871   N1919 
C1871   N1920 
N1892   C2144 
N1895   Zn1937 
N1895   C2099 
N1896   Zn1934 
N1896   C2099 
N1899   C2098 
N1902   Zn1934 
N1905   Zn1937 
N1917   Zn1941 
N1917   C2145 
N1918   C2098 
N1921   C2144 
N1922   Zn1942 
N1922   C2145 
N1924   Zn1941 
N1928   Zn1942 
Zn1932   N2160 
Zn1932   N2163 
Zn1933   N2164 
Zn1933   N2167 
Zn1934   N2168 
Zn1934   N2182 
Zn1935   N2169 
Zn1935   N2179 
Zn1936   N2174 
Zn1936   N2183 
Zn1937   N2175 
Zn1937   N2177 
Zn1938   N2186 
Zn1938   N2187 
Zn1939   N2188 
Zn1939   N2189 
Zn1940   N2192 
Zn1940   N2202 
Zn1941   N2197 
Zn1941   N2203 
Zn1942   N2194 
Zn1942   N2207 
Zn1943   N2199 
Zn1943   N2205 
H1944   C2111 
H1945   C2156 
H1946   C2109 
H1947   C2110 
H1948   C2153 
H1949   C2106 
H1950   C2107 
H1951   C2152 
H1952   C2103 
H1953   C2100 
H1954   C2101 
H1955   C2102 
H1956   C2111 
H1957   C2108 
H1958   C2109 
H1959   C2158 
H1960   C2108 
H1961   C2109 
H1962   C2110 
H1963   C2111 
H1964   C2105 
H1965   C2106 
H1966   C2107 
H1967   C2104 
H1968   C2103 
H1969   C2100 
H1970   C2101 
H1971   C2150 
H1972   C2102 
H1973   C2106 
H1974   C2107 
H1975   C2104 
H1976   C2105 
H1977   C2100 
H1978   C2101 
H1979   C2151 
H1980   C2064 
H1981   C2065 
H1982   C2066 
H1983   C2067 
H1984   C2068 
H1985   C2069 
H1986   C2070 
H1987   C2071 
H1988   C2072 
H1989   C2073 
H1990   C2074 
H1991   C2075 
H1992   C2076 
H1993   C2077 
H1994   C2078 
H1995   C2079 
H1996   C2080 
H1997   C2081 
H1998   C2082 
H1999   C2083 
H2000   C2084 
H2001   C2085 
H2002   C2086 
H2003   C2087 
H2004   C2159 
H2005   C2108 
H2006   C2157 
H2007   C2158 
H2008   C2105 
H2009   C2154 
H2010   C2155 
H2011   C2104 
H2012   C2151 
H2013   C2148 
H2014   C2149 
H2015   C2150 
H2016   C2159 
H2017   C2156 
H2018   C2157 
H2019   C2110 
H2020   C2156 
H2021   C2157 
H2022   C2158 
H2023   C2159 
H2024   C2153 
H2025   C2154 
H2026   C2155 
H2027   C2152 
H2028   C2151 
H2029   C2148 
H2030   C2149 
H2031   C2102 
H2032   C2150 
H2033   C2154 
H2034   C2155 
H2035   C2152 
H2036   C2153 
H2037   C2148 
H2038   C2149 
H2039   C2103 
H2040   C2112 
H2041   C2113 
H2042   C2114 
H2043   C2115 
H2044   C2116 
H2045   C2117 
H2046   C2118 
H2047   C2119 
H2048   C2120 
H2049   C2121 
H2050   C2122 
H2051   C2123 
H2052   C2124 
H2053   C2125 
H2054   C2126 
H2055   C2127 
H2056   C2128 
H2057   C2129 
H2058   C2130 
H2059   C2131 
H2060   C2132 
H2061   C2133 
H2062   C2134 
H2063   C2135 
C2064   C2086 
C2064   N2160 
C2065   C2080 
C2065   N2161 
C2066   C2135 
C2066   N2162 
C2067   C2133 
C2067   N2163 
C2068   C2130 
C2068   N2164 
C2069   C2131 
C2069   N2165 
C2070   C2084 
C2070   N2166 
C2071   C2081 
C2071   N2167 
C2072   C2125 
C2072   N2168 
C2073   C2078 
C2073   N2169 
C2074   C2127 
C2074   N2170 
C2075   C2076 
C2075   N2171 
C2076   N2172 
C2077   C2120 
C2077   N2173 
C2078   N2174 
C2079   C2122 
C2079   N2175 
C2080   N2176 
C2081   N2177 
C2082   C2116 
C2082   N2178 
C2083   C2117 
C2083   N2179 
C2084   N2180 
C2085   C2115 
C2085   N2181 
C2086   N2182 
C2087   C2114 
C2087   N2183 
C2088   C2100 
C2088   N2160 
C2088   N2182 
C2089   C2101 
C2090   C2102 
C2091   C2103 
C2092   C2104 
C2092   N2178 
C2092   N2188 
C2093   C2105 
C2093   N2165 
C2093   N2203 
C2094   C2106 
C2095   C2107 
C2095   N2167 
C2095   N2177 
C2096   C2108 
C2096   N2173 
C2096   N2192 
C2097   C2109 
C2097   N2169 
C2097   N2174 
C2098   C2110 
C2099   C2111 
C2112   C2134 
C2112   N2184 
C2113   C2128 
C2113   N2185 
C2114   N2186 
C2115   N2187 
C2116   N2188 
C2117   N2189 
C2118   C2132 
C2118   N2190 
C2119   C2129 
C2119   N2191 
C2120   N2192 
C2121   C2126 
C2121   N2193 
C2122   N2194 
C2123   C2124 
C2123   N2195 
C2124   N2196 
C2125   N2197 
C2126   N2198 
C2127   N2199 
C2128   N2200 
C2129   N2201 
C2130   N2202 
C2131   N2203 
C2132   N2204 
C2133   N2205 
C2134   N2206 
C2135   N2207 
C2136   C2148 
C2137   C2149 
C2137   N2185 
C2137   N2200 
C2138   C2150 
C2138   N2162 
C2138   N2207 
C2139   C2151 
C2139   N2181 
C2139   N2187 
C2140   C2152 
C2141   C2153 
C2142   C2154 
C2142   N2190 
C2142   N2204 
C2143   C2155 
C2144   C2156 
C2145   C2157 
C2146   C2158 
C2146   N2170 
C2146   N2199 
C2147   C2159 
C2147   N2195 
C2147   N2196 
  
#END  
