data_ZIF8_Br_222
_symmetry_cell_setting           triclinic 
_symmetry_space_group_name_H-M   'P 1' 
_symmetry_Int_Tables_number      1 
loop_ 
_symmetry_equiv_pos_site_id 
_symmetry_equiv_pos_as_xyz 
1 x,y,z 
_cell_length_a             34.500912        
_cell_length_b             34.500912        
_cell_length_c             34.500912        
_cell_angle_alpha          90.000000        
_cell_angle_beta           90.000000        
_cell_angle_gamma          90.000000        
loop_  
_atom_site_label   
_atom_site_type_symbol  
_atom_site_fract_x  
_atom_site_fract_y  
_atom_site_fract_z 
 Zn0  Zn     0.375000      0.250000      0.000000 
 Zn1  Zn     0.375000      0.000000      0.250000 
 Zn2  Zn     0.000000      0.250000      0.375000 
 Zn3  Zn     0.250000      0.375000      0.000000 
 Zn4  Zn     0.250000      0.000000      0.375000 
 Zn5  Zn     0.000000      0.375000      0.250000 
 Zn6  Zn     0.125000      0.000000      0.250000 
 Zn7  Zn     0.125000      0.250000      0.000000 
 Zn8  Zn     0.250000      0.000000      0.125000 
 Zn9  Zn     0.000000      0.125000      0.250000 
 Zn10  Zn     0.000000      0.250000      0.125000 
 Zn11  Zn     0.250000      0.125000      0.000000 
 H12  H     0.381395      0.180357      0.439198 
 H13  H     0.368605      0.310802      0.430357 
 H14  H     0.381395      0.319643      0.060802 
 H15  H     0.368605      0.189198      0.069643 
 H16  H     0.368605      0.069643      0.189198 
 H17  H     0.381395      0.060802      0.319643 
 H18  H     0.368605      0.430357      0.310802 
 H19  H     0.381395      0.439198      0.180357 
 H20  H     0.069643      0.189198      0.368605 
 H21  H     0.180357      0.381395      0.439198 
 H22  H     0.319643      0.060802      0.381395 
 H23  H     0.430357      0.368605      0.310802 
 H24  H     0.430357      0.310802      0.368605 
 H25  H     0.319643      0.381395      0.060802 
 H26  H     0.180357      0.439198      0.381395 
 H27  H     0.069643      0.368605      0.189198 
 H28  H     0.310802      0.368605      0.430357 
 H29  H     0.439198      0.381395      0.180357 
 H30  H     0.060802      0.319643      0.381395 
 H31  H     0.189198      0.368605      0.069643 
 H32  H     0.310802      0.430357      0.368605 
 H33  H     0.060802      0.381395      0.319643 
 H34  H     0.439198      0.180357      0.381395 
 H35  H     0.189198      0.069643      0.368605 
 H36  H     0.131395      0.430357      0.189198 
 H37  H     0.118605      0.060802      0.180357 
 H38  H     0.131395      0.069643      0.310802 
 H39  H     0.118605      0.439198      0.319643 
 H40  H     0.118605      0.319643      0.439198 
 H41  H     0.131395      0.310802      0.069643 
 H42  H     0.118605      0.180357      0.060802 
 H43  H     0.131395      0.189198      0.430357 
 H44  H     0.319643      0.439198      0.118605 
 H45  H     0.430357      0.131395      0.189198 
 H46  H     0.069643      0.310802      0.131395 
 H47  H     0.180357      0.118605      0.060802 
 H48  H     0.180357      0.060802      0.118605 
 H49  H     0.069643      0.131395      0.310802 
 H50  H     0.430357      0.189198      0.131395 
 H51  H     0.319643      0.118605      0.439198 
 H52  H     0.060802      0.118605      0.180357 
 H53  H     0.189198      0.131395      0.430357 
 H54  H     0.310802      0.069643      0.131395 
 H55  H     0.439198      0.118605      0.319643 
 H56  H     0.060802      0.180357      0.118605 
 H57  H     0.310802      0.131395      0.069643 
 H58  H     0.189198      0.430357      0.131395 
 H59  H     0.439198      0.319643      0.118605 
 C60  C     0.438535      0.254019      0.438535 
 C61  C     0.311465      0.311465      0.004019 
 C62  C     0.188535      0.495981      0.311465 
 C63  C     0.311465      0.188535      0.495981 
 C64  C     0.311465      0.495981      0.188535 
 C65  C     0.188535      0.311465      0.495981 
 C66  C     0.311465      0.004019      0.311465 
 C67  C     0.438535      0.438535      0.254019 
 C68  C     0.495981      0.188535      0.311465 
 C69  C     0.254019      0.438535      0.438535 
 C70  C     0.495981      0.311465      0.188535 
 C71  C     0.004019      0.311465      0.311465 
 C72  C     0.404153      0.201512      0.432642 
 C73  C     0.345847      0.317358      0.451512 
 C74  C     0.404153      0.298488      0.067358 
 C75  C     0.345847      0.182642      0.048488 
 C76  C     0.345847      0.048488      0.182642 
 C77  C     0.404153      0.067358      0.298488 
 C78  C     0.345847      0.451512      0.317358 
 C79  C     0.404153      0.432642      0.201512 
 C80  C     0.048488      0.182642      0.345847 
 C81  C     0.201512      0.404153      0.432642 
 C82  C     0.298488      0.067358      0.404153 
 C83  C     0.451512      0.345847      0.317358 
 C84  C     0.451512      0.317358      0.345847 
 C85  C     0.298488      0.404153      0.067358 
 C86  C     0.201512      0.432642      0.404153 
 C87  C     0.048488      0.345847      0.182642 
 C88  C     0.317358      0.345847      0.451512 
 C89  C     0.432642      0.404153      0.201512 
 C90  C     0.067358      0.298488      0.404153 
 C91  C     0.182642      0.345847      0.048488 
 C92  C     0.317358      0.451512      0.345847 
 C93  C     0.067358      0.404153      0.298488 
 C94  C     0.432642      0.201512      0.404153 
 C95  C     0.182642      0.048488      0.345847 
 C96  C     0.188535      0.004019      0.188535 
 C97  C     0.061465      0.061465      0.254019 
 C98  C     0.438535      0.245981      0.061465 
 C99  C     0.061465      0.438535      0.245981 
 C100  C     0.061465      0.245981      0.438535 
 C101  C     0.438535      0.061465      0.245981 
 C102  C     0.061465      0.254019      0.061465 
 C103  C     0.188535      0.188535      0.004019 
 C104  C     0.245981      0.438535      0.061465 
 C105  C     0.004019      0.188535      0.188535 
 C106  C     0.245981      0.061465      0.438535 
 C107  C     0.254019      0.061465      0.061465 
 C108  C     0.154153      0.451512      0.182642 
 C109  C     0.095847      0.067358      0.201512 
 C110  C     0.154153      0.048488      0.317358 
 C111  C     0.095847      0.432642      0.298488 
 C112  C     0.095847      0.298488      0.432642 
 C113  C     0.154153      0.317358      0.048488 
 C114  C     0.095847      0.201512      0.067358 
 C115  C     0.154153      0.182642      0.451512 
 C116  C     0.298488      0.432642      0.095847 
 C117  C     0.451512      0.154153      0.182642 
 C118  C     0.048488      0.317358      0.154153 
 C119  C     0.201512      0.095847      0.067358 
 C120  C     0.201512      0.067358      0.095847 
 C121  C     0.048488      0.154153      0.317358 
 C122  C     0.451512      0.182642      0.154153 
 C123  C     0.298488      0.095847      0.432642 
 C124  C     0.067358      0.095847      0.201512 
 C125  C     0.182642      0.154153      0.451512 
 C126  C     0.317358      0.048488      0.154153 
 C127  C     0.432642      0.095847      0.298488 
 C128  C     0.067358      0.201512      0.095847 
 C129  C     0.317358      0.154153      0.048488 
 C130  C     0.182642      0.451512      0.154153 
 C131  C     0.432642      0.298488      0.095847 
 Br132  Br     0.457620      0.301523      0.457620 
 Br133  Br     0.292380      0.292380      0.051523 
 Br134  Br     0.207620      0.448477      0.292380 
 Br135  Br     0.292380      0.207620      0.448477 
 Br136  Br     0.292380      0.448477      0.207620 
 Br137  Br     0.207620      0.292380      0.448477 
 Br138  Br     0.292380      0.051523      0.292380 
 Br139  Br     0.457620      0.457620      0.301523 
 Br140  Br     0.448477      0.207620      0.292380 
 Br141  Br     0.301523      0.457620      0.457620 
 Br142  Br     0.448477      0.292380      0.207620 
 Br143  Br     0.051523      0.292380      0.292380 
 Br144  Br     0.207620      0.051523      0.207620 
 Br145  Br     0.042380      0.042380      0.301523 
 Br146  Br     0.457620      0.198477      0.042380 
 Br147  Br     0.042380      0.457620      0.198477 
 Br148  Br     0.042380      0.198477      0.457620 
 Br149  Br     0.457620      0.042380      0.198477 
 Br150  Br     0.042380      0.301523      0.042380 
 Br151  Br     0.207620      0.207620      0.051523 
 Br152  Br     0.198477      0.457620      0.042380 
 Br153  Br     0.051523      0.207620      0.207620 
 Br154  Br     0.198477      0.042380      0.457620 
 Br155  Br     0.301523      0.042380      0.042380 
 N156  N     0.407989      0.235247      0.454503 
 N157  N     0.342011      0.295497      0.485247 
 N158  N     0.407989      0.264753      0.045497 
 N159  N     0.342011      0.204503      0.014753 
 N160  N     0.342011      0.014753      0.204503 
 N161  N     0.407989      0.045497      0.264753 
 N162  N     0.342011      0.485247      0.295497 
 N163  N     0.407989      0.454503      0.235247 
 N164  N     0.014753      0.204503      0.342011 
 N165  N     0.235247      0.407989      0.454503 
 N166  N     0.264753      0.045497      0.407989 
 N167  N     0.485247      0.342011      0.295497 
 N168  N     0.485247      0.295497      0.342011 
 N169  N     0.264753      0.407989      0.045497 
 N170  N     0.235247      0.454503      0.407989 
 N171  N     0.014753      0.342011      0.204503 
 N172  N     0.295497      0.342011      0.485247 
 N173  N     0.454503      0.407989      0.235247 
 N174  N     0.045497      0.264753      0.407989 
 N175  N     0.204503      0.342011      0.014753 
 N176  N     0.295497      0.485247      0.342011 
 N177  N     0.045497      0.407989      0.264753 
 N178  N     0.454503      0.235247      0.407989 
 N179  N     0.204503      0.014753      0.342011 
 N180  N     0.157989      0.485247      0.204503 
 N181  N     0.092011      0.045497      0.235247 
 N182  N     0.157989      0.014753      0.295497 
 N183  N     0.092011      0.454503      0.264753 
 N184  N     0.092011      0.264753      0.454503 
 N185  N     0.157989      0.295497      0.014753 
 N186  N     0.092011      0.235247      0.045497 
 N187  N     0.157989      0.204503      0.485247 
 N188  N     0.264753      0.454503      0.092011 
 N189  N     0.485247      0.157989      0.204503 
 N190  N     0.014753      0.295497      0.157989 
 N191  N     0.235247      0.092011      0.045497 
 N192  N     0.235247      0.045497      0.092011 
 N193  N     0.014753      0.157989      0.295497 
 N194  N     0.485247      0.204503      0.157989 
 N195  N     0.264753      0.092011      0.454503 
 N196  N     0.045497      0.092011      0.235247 
 N197  N     0.204503      0.157989      0.485247 
 N198  N     0.295497      0.014753      0.157989 
 N199  N     0.454503      0.092011      0.264753 
 N200  N     0.045497      0.235247      0.092011 
 N201  N     0.295497      0.157989      0.014753 
 N202  N     0.204503      0.485247      0.157989 
 N203  N     0.454503      0.264753      0.092011 
 Zn204  Zn    -0.125000      0.250000      0.000000 
 Zn205  Zn    -0.125000      0.000000      0.250000 
 Zn206  Zn     0.500000      0.250000      0.375000 
 Zn207  Zn    -0.250000      0.375000      0.000000 
 Zn208  Zn    -0.250000      0.000000      0.375000 
 Zn209  Zn     0.500000      0.375000      0.250000 
 Zn210  Zn    -0.375000      0.000000      0.250000 
 Zn211  Zn    -0.375000      0.250000      0.000000 
 Zn212  Zn    -0.250000      0.000000      0.125000 
 Zn213  Zn     0.500000      0.125000      0.250000 
 Zn214  Zn     0.500000      0.250000      0.125000 
 Zn215  Zn    -0.250000      0.125000      0.000000 
 H216  H    -0.118605      0.180357      0.439198 
 H217  H    -0.131395      0.310802      0.430357 
 H218  H    -0.118605      0.319643      0.060802 
 H219  H    -0.131395      0.189198      0.069643 
 H220  H    -0.131395      0.069643      0.189198 
 H221  H    -0.118605      0.060802      0.319643 
 H222  H    -0.131395      0.430357      0.310802 
 H223  H    -0.118605      0.439198      0.180357 
 H224  H    -0.430357      0.189198      0.368605 
 H225  H    -0.319643      0.381395      0.439198 
 H226  H    -0.180357      0.060802      0.381395 
 H227  H    -0.069643      0.368605      0.310802 
 H228  H    -0.069643      0.310802      0.368605 
 H229  H    -0.180357      0.381395      0.060802 
 H230  H    -0.319643      0.439198      0.381395 
 H231  H    -0.430357      0.368605      0.189198 
 H232  H    -0.189198      0.368605      0.430357 
 H233  H    -0.060802      0.381395      0.180357 
 H234  H    -0.439198      0.319643      0.381395 
 H235  H    -0.310802      0.368605      0.069643 
 H236  H    -0.189198      0.430357      0.368605 
 H237  H    -0.439198      0.381395      0.319643 
 H238  H    -0.060802      0.180357      0.381395 
 H239  H    -0.310802      0.069643      0.368605 
 H240  H    -0.368605      0.430357      0.189198 
 H241  H    -0.381395      0.060802      0.180357 
 H242  H    -0.368605      0.069643      0.310802 
 H243  H    -0.381395      0.439198      0.319643 
 H244  H    -0.381395      0.319643      0.439198 
 H245  H    -0.368605      0.310802      0.069643 
 H246  H    -0.381395      0.180357      0.060802 
 H247  H    -0.368605      0.189198      0.430357 
 H248  H    -0.180357      0.439198      0.118605 
 H249  H    -0.069643      0.131395      0.189198 
 H250  H    -0.430357      0.310802      0.131395 
 H251  H    -0.319643      0.118605      0.060802 
 H252  H    -0.319643      0.060802      0.118605 
 H253  H    -0.430357      0.131395      0.310802 
 H254  H    -0.069643      0.189198      0.131395 
 H255  H    -0.180357      0.118605      0.439198 
 H256  H    -0.439198      0.118605      0.180357 
 H257  H    -0.310802      0.131395      0.430357 
 H258  H    -0.189198      0.069643      0.131395 
 H259  H    -0.060802      0.118605      0.319643 
 H260  H    -0.439198      0.180357      0.118605 
 H261  H    -0.189198      0.131395      0.069643 
 H262  H    -0.310802      0.430357      0.131395 
 H263  H    -0.060802      0.319643      0.118605 
 C264  C    -0.061465      0.254019      0.438535 
 C265  C    -0.188535      0.311465      0.004019 
 C266  C    -0.311465      0.495981      0.311465 
 C267  C    -0.188535      0.188535      0.495981 
 C268  C    -0.188535      0.495981      0.188535 
 C269  C    -0.311465      0.311465      0.495981 
 C270  C    -0.188535      0.004019      0.311465 
 C271  C    -0.061465      0.438535      0.254019 
 C272  C    -0.004019      0.188535      0.311465 
 C273  C    -0.245981      0.438535      0.438535 
 C274  C    -0.004019      0.311465      0.188535 
 C275  C    -0.495981      0.311465      0.311465 
 C276  C    -0.095847      0.201512      0.432642 
 C277  C    -0.154153      0.317358      0.451512 
 C278  C    -0.095847      0.298488      0.067358 
 C279  C    -0.154153      0.182642      0.048488 
 C280  C    -0.154153      0.048488      0.182642 
 C281  C    -0.095847      0.067358      0.298488 
 C282  C    -0.154153      0.451512      0.317358 
 C283  C    -0.095847      0.432642      0.201512 
 C284  C    -0.451512      0.182642      0.345847 
 C285  C    -0.298488      0.404153      0.432642 
 C286  C    -0.201512      0.067358      0.404153 
 C287  C    -0.048488      0.345847      0.317358 
 C288  C    -0.048488      0.317358      0.345847 
 C289  C    -0.201512      0.404153      0.067358 
 C290  C    -0.298488      0.432642      0.404153 
 C291  C    -0.451512      0.345847      0.182642 
 C292  C    -0.182642      0.345847      0.451512 
 C293  C    -0.067358      0.404153      0.201512 
 C294  C    -0.432642      0.298488      0.404153 
 C295  C    -0.317358      0.345847      0.048488 
 C296  C    -0.182642      0.451512      0.345847 
 C297  C    -0.432642      0.404153      0.298488 
 C298  C    -0.067358      0.201512      0.404153 
 C299  C    -0.317358      0.048488      0.345847 
 C300  C    -0.311465      0.004019      0.188535 
 C301  C    -0.438535      0.061465      0.254019 
 C302  C    -0.061465      0.245981      0.061465 
 C303  C    -0.438535      0.438535      0.245981 
 C304  C    -0.438535      0.245981      0.438535 
 C305  C    -0.061465      0.061465      0.245981 
 C306  C    -0.438535      0.254019      0.061465 
 C307  C    -0.311465      0.188535      0.004019 
 C308  C    -0.254019      0.438535      0.061465 
 C309  C    -0.495981      0.188535      0.188535 
 C310  C    -0.254019      0.061465      0.438535 
 C311  C    -0.245981      0.061465      0.061465 
 C312  C    -0.345847      0.451512      0.182642 
 C313  C    -0.404153      0.067358      0.201512 
 C314  C    -0.345847      0.048488      0.317358 
 C315  C    -0.404153      0.432642      0.298488 
 C316  C    -0.404153      0.298488      0.432642 
 C317  C    -0.345847      0.317358      0.048488 
 C318  C    -0.404153      0.201512      0.067358 
 C319  C    -0.345847      0.182642      0.451512 
 C320  C    -0.201512      0.432642      0.095847 
 C321  C    -0.048488      0.154153      0.182642 
 C322  C    -0.451512      0.317358      0.154153 
 C323  C    -0.298488      0.095847      0.067358 
 C324  C    -0.298488      0.067358      0.095847 
 C325  C    -0.451512      0.154153      0.317358 
 C326  C    -0.048488      0.182642      0.154153 
 C327  C    -0.201512      0.095847      0.432642 
 C328  C    -0.432642      0.095847      0.201512 
 C329  C    -0.317358      0.154153      0.451512 
 C330  C    -0.182642      0.048488      0.154153 
 C331  C    -0.067358      0.095847      0.298488 
 C332  C    -0.432642      0.201512      0.095847 
 C333  C    -0.182642      0.154153      0.048488 
 C334  C    -0.317358      0.451512      0.154153 
 C335  C    -0.067358      0.298488      0.095847 
 Br336  Br    -0.042380      0.301523      0.457620 
 Br337  Br    -0.207620      0.292380      0.051523 
 Br338  Br    -0.292380      0.448477      0.292380 
 Br339  Br    -0.207620      0.207620      0.448477 
 Br340  Br    -0.207620      0.448477      0.207620 
 Br341  Br    -0.292380      0.292380      0.448477 
 Br342  Br    -0.207620      0.051523      0.292380 
 Br343  Br    -0.042380      0.457620      0.301523 
 Br344  Br    -0.051523      0.207620      0.292380 
 Br345  Br    -0.198477      0.457620      0.457620 
 Br346  Br    -0.051523      0.292380      0.207620 
 Br347  Br    -0.448477      0.292380      0.292380 
 Br348  Br    -0.292380      0.051523      0.207620 
 Br349  Br    -0.457620      0.042380      0.301523 
 Br350  Br    -0.042380      0.198477      0.042380 
 Br351  Br    -0.457620      0.457620      0.198477 
 Br352  Br    -0.457620      0.198477      0.457620 
 Br353  Br    -0.042380      0.042380      0.198477 
 Br354  Br    -0.457620      0.301523      0.042380 
 Br355  Br    -0.292380      0.207620      0.051523 
 Br356  Br    -0.301523      0.457620      0.042380 
 Br357  Br    -0.448477      0.207620      0.207620 
 Br358  Br    -0.301523      0.042380      0.457620 
 Br359  Br    -0.198477      0.042380      0.042380 
 N360  N    -0.092011      0.235247      0.454503 
 N361  N    -0.157989      0.295497      0.485247 
 N362  N    -0.092011      0.264753      0.045497 
 N363  N    -0.157989      0.204503      0.014753 
 N364  N    -0.157989      0.014753      0.204503 
 N365  N    -0.092011      0.045497      0.264753 
 N366  N    -0.157989      0.485247      0.295497 
 N367  N    -0.092011      0.454503      0.235247 
 N368  N    -0.485247      0.204503      0.342011 
 N369  N    -0.264753      0.407989      0.454503 
 N370  N    -0.235247      0.045497      0.407989 
 N371  N    -0.014753      0.342011      0.295497 
 N372  N    -0.014753      0.295497      0.342011 
 N373  N    -0.235247      0.407989      0.045497 
 N374  N    -0.264753      0.454503      0.407989 
 N375  N    -0.485247      0.342011      0.204503 
 N376  N    -0.204503      0.342011      0.485247 
 N377  N    -0.045497      0.407989      0.235247 
 N378  N    -0.454503      0.264753      0.407989 
 N379  N    -0.295497      0.342011      0.014753 
 N380  N    -0.204503      0.485247      0.342011 
 N381  N    -0.454503      0.407989      0.264753 
 N382  N    -0.045497      0.235247      0.407989 
 N383  N    -0.295497      0.014753      0.342011 
 N384  N    -0.342011      0.485247      0.204503 
 N385  N    -0.407989      0.045497      0.235247 
 N386  N    -0.342011      0.014753      0.295497 
 N387  N    -0.407989      0.454503      0.264753 
 N388  N    -0.407989      0.264753      0.454503 
 N389  N    -0.342011      0.295497      0.014753 
 N390  N    -0.407989      0.235247      0.045497 
 N391  N    -0.342011      0.204503      0.485247 
 N392  N    -0.235247      0.454503      0.092011 
 N393  N    -0.014753      0.157989      0.204503 
 N394  N    -0.485247      0.295497      0.157989 
 N395  N    -0.264753      0.092011      0.045497 
 N396  N    -0.264753      0.045497      0.092011 
 N397  N    -0.485247      0.157989      0.295497 
 N398  N    -0.014753      0.204503      0.157989 
 N399  N    -0.235247      0.092011      0.454503 
 N400  N    -0.454503      0.092011      0.235247 
 N401  N    -0.295497      0.157989      0.485247 
 N402  N    -0.204503      0.014753      0.157989 
 N403  N    -0.045497      0.092011      0.264753 
 N404  N    -0.454503      0.235247      0.092011 
 N405  N    -0.204503      0.157989      0.014753 
 N406  N    -0.295497      0.485247      0.157989 
 N407  N    -0.045497      0.264753      0.092011 
 Zn408  Zn     0.375000     -0.250000      0.000000 
 Zn409  Zn     0.375000      0.500000      0.250000 
 Zn410  Zn     0.000000     -0.250000      0.375000 
 Zn411  Zn     0.250000     -0.125000      0.000000 
 Zn412  Zn     0.250000      0.500000      0.375000 
 Zn413  Zn     0.000000     -0.125000      0.250000 
 Zn414  Zn     0.125000      0.500000      0.250000 
 Zn415  Zn     0.125000     -0.250000      0.000000 
 Zn416  Zn     0.250000      0.500000      0.125000 
 Zn417  Zn     0.000000     -0.375000      0.250000 
 Zn418  Zn     0.000000     -0.250000      0.125000 
 Zn419  Zn     0.250000     -0.375000      0.000000 
 H420  H     0.381395     -0.319643      0.439198 
 H421  H     0.368605     -0.189198      0.430357 
 H422  H     0.381395     -0.180357      0.060802 
 H423  H     0.368605     -0.310802      0.069643 
 H424  H     0.368605     -0.430357      0.189198 
 H425  H     0.381395     -0.439198      0.319643 
 H426  H     0.368605     -0.069643      0.310802 
 H427  H     0.381395     -0.060802      0.180357 
 H428  H     0.069643     -0.310802      0.368605 
 H429  H     0.180357     -0.118605      0.439198 
 H430  H     0.319643     -0.439198      0.381395 
 H431  H     0.430357     -0.131395      0.310802 
 H432  H     0.430357     -0.189198      0.368605 
 H433  H     0.319643     -0.118605      0.060802 
 H434  H     0.180357     -0.060802      0.381395 
 H435  H     0.069643     -0.131395      0.189198 
 H436  H     0.310802     -0.131395      0.430357 
 H437  H     0.439198     -0.118605      0.180357 
 H438  H     0.060802     -0.180357      0.381395 
 H439  H     0.189198     -0.131395      0.069643 
 H440  H     0.310802     -0.069643      0.368605 
 H441  H     0.060802     -0.118605      0.319643 
 H442  H     0.439198     -0.319643      0.381395 
 H443  H     0.189198     -0.430357      0.368605 
 H444  H     0.131395     -0.069643      0.189198 
 H445  H     0.118605     -0.439198      0.180357 
 H446  H     0.131395     -0.430357      0.310802 
 H447  H     0.118605     -0.060802      0.319643 
 H448  H     0.118605     -0.180357      0.439198 
 H449  H     0.131395     -0.189198      0.069643 
 H450  H     0.118605     -0.319643      0.060802 
 H451  H     0.131395     -0.310802      0.430357 
 H452  H     0.319643     -0.060802      0.118605 
 H453  H     0.430357     -0.368605      0.189198 
 H454  H     0.069643     -0.189198      0.131395 
 H455  H     0.180357     -0.381395      0.060802 
 H456  H     0.180357     -0.439198      0.118605 
 H457  H     0.069643     -0.368605      0.310802 
 H458  H     0.430357     -0.310802      0.131395 
 H459  H     0.319643     -0.381395      0.439198 
 H460  H     0.060802     -0.381395      0.180357 
 H461  H     0.189198     -0.368605      0.430357 
 H462  H     0.310802     -0.430357      0.131395 
 H463  H     0.439198     -0.381395      0.319643 
 H464  H     0.060802     -0.319643      0.118605 
 H465  H     0.310802     -0.368605      0.069643 
 H466  H     0.189198     -0.069643      0.131395 
 H467  H     0.439198     -0.180357      0.118605 
 C468  C     0.438535     -0.245981      0.438535 
 C469  C     0.311465     -0.188535      0.004019 
 C470  C     0.188535     -0.004019      0.311465 
 C471  C     0.311465     -0.311465      0.495981 
 C472  C     0.311465     -0.004019      0.188535 
 C473  C     0.188535     -0.188535      0.495981 
 C474  C     0.311465     -0.495981      0.311465 
 C475  C     0.438535     -0.061465      0.254019 
 C476  C     0.495981     -0.311465      0.311465 
 C477  C     0.254019     -0.061465      0.438535 
 C478  C     0.495981     -0.188535      0.188535 
 C479  C     0.004019     -0.188535      0.311465 
 C480  C     0.404153     -0.298488      0.432642 
 C481  C     0.345847     -0.182642      0.451512 
 C482  C     0.404153     -0.201512      0.067358 
 C483  C     0.345847     -0.317358      0.048488 
 C484  C     0.345847     -0.451512      0.182642 
 C485  C     0.404153     -0.432642      0.298488 
 C486  C     0.345847     -0.048488      0.317358 
 C487  C     0.404153     -0.067358      0.201512 
 C488  C     0.048488     -0.317358      0.345847 
 C489  C     0.201512     -0.095847      0.432642 
 C490  C     0.298488     -0.432642      0.404153 
 C491  C     0.451512     -0.154153      0.317358 
 C492  C     0.451512     -0.182642      0.345847 
 C493  C     0.298488     -0.095847      0.067358 
 C494  C     0.201512     -0.067358      0.404153 
 C495  C     0.048488     -0.154153      0.182642 
 C496  C     0.317358     -0.154153      0.451512 
 C497  C     0.432642     -0.095847      0.201512 
 C498  C     0.067358     -0.201512      0.404153 
 C499  C     0.182642     -0.154153      0.048488 
 C500  C     0.317358     -0.048488      0.345847 
 C501  C     0.067358     -0.095847      0.298488 
 C502  C     0.432642     -0.298488      0.404153 
 C503  C     0.182642     -0.451512      0.345847 
 C504  C     0.188535     -0.495981      0.188535 
 C505  C     0.061465     -0.438535      0.254019 
 C506  C     0.438535     -0.254019      0.061465 
 C507  C     0.061465     -0.061465      0.245981 
 C508  C     0.061465     -0.254019      0.438535 
 C509  C     0.438535     -0.438535      0.245981 
 C510  C     0.061465     -0.245981      0.061465 
 C511  C     0.188535     -0.311465      0.004019 
 C512  C     0.245981     -0.061465      0.061465 
 C513  C     0.004019     -0.311465      0.188535 
 C514  C     0.245981     -0.438535      0.438535 
 C515  C     0.254019     -0.438535      0.061465 
 C516  C     0.154153     -0.048488      0.182642 
 C517  C     0.095847     -0.432642      0.201512 
 C518  C     0.154153     -0.451512      0.317358 
 C519  C     0.095847     -0.067358      0.298488 
 C520  C     0.095847     -0.201512      0.432642 
 C521  C     0.154153     -0.182642      0.048488 
 C522  C     0.095847     -0.298488      0.067358 
 C523  C     0.154153     -0.317358      0.451512 
 C524  C     0.298488     -0.067358      0.095847 
 C525  C     0.451512     -0.345847      0.182642 
 C526  C     0.048488     -0.182642      0.154153 
 C527  C     0.201512     -0.404153      0.067358 
 C528  C     0.201512     -0.432642      0.095847 
 C529  C     0.048488     -0.345847      0.317358 
 C530  C     0.451512     -0.317358      0.154153 
 C531  C     0.298488     -0.404153      0.432642 
 C532  C     0.067358     -0.404153      0.201512 
 C533  C     0.182642     -0.345847      0.451512 
 C534  C     0.317358     -0.451512      0.154153 
 C535  C     0.432642     -0.404153      0.298488 
 C536  C     0.067358     -0.298488      0.095847 
 C537  C     0.317358     -0.345847      0.048488 
 C538  C     0.182642     -0.048488      0.154153 
 C539  C     0.432642     -0.201512      0.095847 
 Br540  Br     0.457620     -0.198477      0.457620 
 Br541  Br     0.292380     -0.207620      0.051523 
 Br542  Br     0.207620     -0.051523      0.292380 
 Br543  Br     0.292380     -0.292380      0.448477 
 Br544  Br     0.292380     -0.051523      0.207620 
 Br545  Br     0.207620     -0.207620      0.448477 
 Br546  Br     0.292380     -0.448477      0.292380 
 Br547  Br     0.457620     -0.042380      0.301523 
 Br548  Br     0.448477     -0.292380      0.292380 
 Br549  Br     0.301523     -0.042380      0.457620 
 Br550  Br     0.448477     -0.207620      0.207620 
 Br551  Br     0.051523     -0.207620      0.292380 
 Br552  Br     0.207620     -0.448477      0.207620 
 Br553  Br     0.042380     -0.457620      0.301523 
 Br554  Br     0.457620     -0.301523      0.042380 
 Br555  Br     0.042380     -0.042380      0.198477 
 Br556  Br     0.042380     -0.301523      0.457620 
 Br557  Br     0.457620     -0.457620      0.198477 
 Br558  Br     0.042380     -0.198477      0.042380 
 Br559  Br     0.207620     -0.292380      0.051523 
 Br560  Br     0.198477     -0.042380      0.042380 
 Br561  Br     0.051523     -0.292380      0.207620 
 Br562  Br     0.198477     -0.457620      0.457620 
 Br563  Br     0.301523     -0.457620      0.042380 
 N564  N     0.407989     -0.264753      0.454503 
 N565  N     0.342011     -0.204503      0.485247 
 N566  N     0.407989     -0.235247      0.045497 
 N567  N     0.342011     -0.295497      0.014753 
 N568  N     0.342011     -0.485247      0.204503 
 N569  N     0.407989     -0.454503      0.264753 
 N570  N     0.342011     -0.014753      0.295497 
 N571  N     0.407989     -0.045497      0.235247 
 N572  N     0.014753     -0.295497      0.342011 
 N573  N     0.235247     -0.092011      0.454503 
 N574  N     0.264753     -0.454503      0.407989 
 N575  N     0.485247     -0.157989      0.295497 
 N576  N     0.485247     -0.204503      0.342011 
 N577  N     0.264753     -0.092011      0.045497 
 N578  N     0.235247     -0.045497      0.407989 
 N579  N     0.014753     -0.157989      0.204503 
 N580  N     0.295497     -0.157989      0.485247 
 N581  N     0.454503     -0.092011      0.235247 
 N582  N     0.045497     -0.235247      0.407989 
 N583  N     0.204503     -0.157989      0.014753 
 N584  N     0.295497     -0.014753      0.342011 
 N585  N     0.045497     -0.092011      0.264753 
 N586  N     0.454503     -0.264753      0.407989 
 N587  N     0.204503     -0.485247      0.342011 
 N588  N     0.157989     -0.014753      0.204503 
 N589  N     0.092011     -0.454503      0.235247 
 N590  N     0.157989     -0.485247      0.295497 
 N591  N     0.092011     -0.045497      0.264753 
 N592  N     0.092011     -0.235247      0.454503 
 N593  N     0.157989     -0.204503      0.014753 
 N594  N     0.092011     -0.264753      0.045497 
 N595  N     0.157989     -0.295497      0.485247 
 N596  N     0.264753     -0.045497      0.092011 
 N597  N     0.485247     -0.342011      0.204503 
 N598  N     0.014753     -0.204503      0.157989 
 N599  N     0.235247     -0.407989      0.045497 
 N600  N     0.235247     -0.454503      0.092011 
 N601  N     0.014753     -0.342011      0.295497 
 N602  N     0.485247     -0.295497      0.157989 
 N603  N     0.264753     -0.407989      0.454503 
 N604  N     0.045497     -0.407989      0.235247 
 N605  N     0.204503     -0.342011      0.485247 
 N606  N     0.295497     -0.485247      0.157989 
 N607  N     0.454503     -0.407989      0.264753 
 N608  N     0.045497     -0.264753      0.092011 
 N609  N     0.295497     -0.342011      0.014753 
 N610  N     0.204503     -0.014753      0.157989 
 N611  N     0.454503     -0.235247      0.092011 
 Zn612  Zn    -0.125000     -0.250000      0.000000 
 Zn613  Zn    -0.125000      0.500000      0.250000 
 Zn614  Zn     0.500000     -0.250000      0.375000 
 Zn615  Zn    -0.250000     -0.125000      0.000000 
 Zn616  Zn    -0.250000      0.500000      0.375000 
 Zn617  Zn     0.500000     -0.125000      0.250000 
 Zn618  Zn    -0.375000      0.500000      0.250000 
 Zn619  Zn    -0.375000     -0.250000      0.000000 
 Zn620  Zn    -0.250000      0.500000      0.125000 
 Zn621  Zn     0.500000     -0.375000      0.250000 
 Zn622  Zn     0.500000     -0.250000      0.125000 
 Zn623  Zn    -0.250000     -0.375000      0.000000 
 H624  H    -0.118605     -0.319643      0.439198 
 H625  H    -0.131395     -0.189198      0.430357 
 H626  H    -0.118605     -0.180357      0.060802 
 H627  H    -0.131395     -0.310802      0.069643 
 H628  H    -0.131395     -0.430357      0.189198 
 H629  H    -0.118605     -0.439198      0.319643 
 H630  H    -0.131395     -0.069643      0.310802 
 H631  H    -0.118605     -0.060802      0.180357 
 H632  H    -0.430357     -0.310802      0.368605 
 H633  H    -0.319643     -0.118605      0.439198 
 H634  H    -0.180357     -0.439198      0.381395 
 H635  H    -0.069643     -0.131395      0.310802 
 H636  H    -0.069643     -0.189198      0.368605 
 H637  H    -0.180357     -0.118605      0.060802 
 H638  H    -0.319643     -0.060802      0.381395 
 H639  H    -0.430357     -0.131395      0.189198 
 H640  H    -0.189198     -0.131395      0.430357 
 H641  H    -0.060802     -0.118605      0.180357 
 H642  H    -0.439198     -0.180357      0.381395 
 H643  H    -0.310802     -0.131395      0.069643 
 H644  H    -0.189198     -0.069643      0.368605 
 H645  H    -0.439198     -0.118605      0.319643 
 H646  H    -0.060802     -0.319643      0.381395 
 H647  H    -0.310802     -0.430357      0.368605 
 H648  H    -0.368605     -0.069643      0.189198 
 H649  H    -0.381395     -0.439198      0.180357 
 H650  H    -0.368605     -0.430357      0.310802 
 H651  H    -0.381395     -0.060802      0.319643 
 H652  H    -0.381395     -0.180357      0.439198 
 H653  H    -0.368605     -0.189198      0.069643 
 H654  H    -0.381395     -0.319643      0.060802 
 H655  H    -0.368605     -0.310802      0.430357 
 H656  H    -0.180357     -0.060802      0.118605 
 H657  H    -0.069643     -0.368605      0.189198 
 H658  H    -0.430357     -0.189198      0.131395 
 H659  H    -0.319643     -0.381395      0.060802 
 H660  H    -0.319643     -0.439198      0.118605 
 H661  H    -0.430357     -0.368605      0.310802 
 H662  H    -0.069643     -0.310802      0.131395 
 H663  H    -0.180357     -0.381395      0.439198 
 H664  H    -0.439198     -0.381395      0.180357 
 H665  H    -0.310802     -0.368605      0.430357 
 H666  H    -0.189198     -0.430357      0.131395 
 H667  H    -0.060802     -0.381395      0.319643 
 H668  H    -0.439198     -0.319643      0.118605 
 H669  H    -0.189198     -0.368605      0.069643 
 H670  H    -0.310802     -0.069643      0.131395 
 H671  H    -0.060802     -0.180357      0.118605 
 C672  C    -0.061465     -0.245981      0.438535 
 C673  C    -0.188535     -0.188535      0.004019 
 C674  C    -0.311465     -0.004019      0.311465 
 C675  C    -0.188535     -0.311465      0.495981 
 C676  C    -0.188535     -0.004019      0.188535 
 C677  C    -0.311465     -0.188535      0.495981 
 C678  C    -0.188535     -0.495981      0.311465 
 C679  C    -0.061465     -0.061465      0.254019 
 C680  C    -0.004019     -0.311465      0.311465 
 C681  C    -0.245981     -0.061465      0.438535 
 C682  C    -0.004019     -0.188535      0.188535 
 C683  C    -0.495981     -0.188535      0.311465 
 C684  C    -0.095847     -0.298488      0.432642 
 C685  C    -0.154153     -0.182642      0.451512 
 C686  C    -0.095847     -0.201512      0.067358 
 C687  C    -0.154153     -0.317358      0.048488 
 C688  C    -0.154153     -0.451512      0.182642 
 C689  C    -0.095847     -0.432642      0.298488 
 C690  C    -0.154153     -0.048488      0.317358 
 C691  C    -0.095847     -0.067358      0.201512 
 C692  C    -0.451512     -0.317358      0.345847 
 C693  C    -0.298488     -0.095847      0.432642 
 C694  C    -0.201512     -0.432642      0.404153 
 C695  C    -0.048488     -0.154153      0.317358 
 C696  C    -0.048488     -0.182642      0.345847 
 C697  C    -0.201512     -0.095847      0.067358 
 C698  C    -0.298488     -0.067358      0.404153 
 C699  C    -0.451512     -0.154153      0.182642 
 C700  C    -0.182642     -0.154153      0.451512 
 C701  C    -0.067358     -0.095847      0.201512 
 C702  C    -0.432642     -0.201512      0.404153 
 C703  C    -0.317358     -0.154153      0.048488 
 C704  C    -0.182642     -0.048488      0.345847 
 C705  C    -0.432642     -0.095847      0.298488 
 C706  C    -0.067358     -0.298488      0.404153 
 C707  C    -0.317358     -0.451512      0.345847 
 C708  C    -0.311465     -0.495981      0.188535 
 C709  C    -0.438535     -0.438535      0.254019 
 C710  C    -0.061465     -0.254019      0.061465 
 C711  C    -0.438535     -0.061465      0.245981 
 C712  C    -0.438535     -0.254019      0.438535 
 C713  C    -0.061465     -0.438535      0.245981 
 C714  C    -0.438535     -0.245981      0.061465 
 C715  C    -0.311465     -0.311465      0.004019 
 C716  C    -0.254019     -0.061465      0.061465 
 C717  C    -0.495981     -0.311465      0.188535 
 C718  C    -0.254019     -0.438535      0.438535 
 C719  C    -0.245981     -0.438535      0.061465 
 C720  C    -0.345847     -0.048488      0.182642 
 C721  C    -0.404153     -0.432642      0.201512 
 C722  C    -0.345847     -0.451512      0.317358 
 C723  C    -0.404153     -0.067358      0.298488 
 C724  C    -0.404153     -0.201512      0.432642 
 C725  C    -0.345847     -0.182642      0.048488 
 C726  C    -0.404153     -0.298488      0.067358 
 C727  C    -0.345847     -0.317358      0.451512 
 C728  C    -0.201512     -0.067358      0.095847 
 C729  C    -0.048488     -0.345847      0.182642 
 C730  C    -0.451512     -0.182642      0.154153 
 C731  C    -0.298488     -0.404153      0.067358 
 C732  C    -0.298488     -0.432642      0.095847 
 C733  C    -0.451512     -0.345847      0.317358 
 C734  C    -0.048488     -0.317358      0.154153 
 C735  C    -0.201512     -0.404153      0.432642 
 C736  C    -0.432642     -0.404153      0.201512 
 C737  C    -0.317358     -0.345847      0.451512 
 C738  C    -0.182642     -0.451512      0.154153 
 C739  C    -0.067358     -0.404153      0.298488 
 C740  C    -0.432642     -0.298488      0.095847 
 C741  C    -0.182642     -0.345847      0.048488 
 C742  C    -0.317358     -0.048488      0.154153 
 C743  C    -0.067358     -0.201512      0.095847 
 Br744  Br    -0.042380     -0.198477      0.457620 
 Br745  Br    -0.207620     -0.207620      0.051523 
 Br746  Br    -0.292380     -0.051523      0.292380 
 Br747  Br    -0.207620     -0.292380      0.448477 
 Br748  Br    -0.207620     -0.051523      0.207620 
 Br749  Br    -0.292380     -0.207620      0.448477 
 Br750  Br    -0.207620     -0.448477      0.292380 
 Br751  Br    -0.042380     -0.042380      0.301523 
 Br752  Br    -0.051523     -0.292380      0.292380 
 Br753  Br    -0.198477     -0.042380      0.457620 
 Br754  Br    -0.051523     -0.207620      0.207620 
 Br755  Br    -0.448477     -0.207620      0.292380 
 Br756  Br    -0.292380     -0.448477      0.207620 
 Br757  Br    -0.457620     -0.457620      0.301523 
 Br758  Br    -0.042380     -0.301523      0.042380 
 Br759  Br    -0.457620     -0.042380      0.198477 
 Br760  Br    -0.457620     -0.301523      0.457620 
 Br761  Br    -0.042380     -0.457620      0.198477 
 Br762  Br    -0.457620     -0.198477      0.042380 
 Br763  Br    -0.292380     -0.292380      0.051523 
 Br764  Br    -0.301523     -0.042380      0.042380 
 Br765  Br    -0.448477     -0.292380      0.207620 
 Br766  Br    -0.301523     -0.457620      0.457620 
 Br767  Br    -0.198477     -0.457620      0.042380 
 N768  N    -0.092011     -0.264753      0.454503 
 N769  N    -0.157989     -0.204503      0.485247 
 N770  N    -0.092011     -0.235247      0.045497 
 N771  N    -0.157989     -0.295497      0.014753 
 N772  N    -0.157989     -0.485247      0.204503 
 N773  N    -0.092011     -0.454503      0.264753 
 N774  N    -0.157989     -0.014753      0.295497 
 N775  N    -0.092011     -0.045497      0.235247 
 N776  N    -0.485247     -0.295497      0.342011 
 N777  N    -0.264753     -0.092011      0.454503 
 N778  N    -0.235247     -0.454503      0.407989 
 N779  N    -0.014753     -0.157989      0.295497 
 N780  N    -0.014753     -0.204503      0.342011 
 N781  N    -0.235247     -0.092011      0.045497 
 N782  N    -0.264753     -0.045497      0.407989 
 N783  N    -0.485247     -0.157989      0.204503 
 N784  N    -0.204503     -0.157989      0.485247 
 N785  N    -0.045497     -0.092011      0.235247 
 N786  N    -0.454503     -0.235247      0.407989 
 N787  N    -0.295497     -0.157989      0.014753 
 N788  N    -0.204503     -0.014753      0.342011 
 N789  N    -0.454503     -0.092011      0.264753 
 N790  N    -0.045497     -0.264753      0.407989 
 N791  N    -0.295497     -0.485247      0.342011 
 N792  N    -0.342011     -0.014753      0.204503 
 N793  N    -0.407989     -0.454503      0.235247 
 N794  N    -0.342011     -0.485247      0.295497 
 N795  N    -0.407989     -0.045497      0.264753 
 N796  N    -0.407989     -0.235247      0.454503 
 N797  N    -0.342011     -0.204503      0.014753 
 N798  N    -0.407989     -0.264753      0.045497 
 N799  N    -0.342011     -0.295497      0.485247 
 N800  N    -0.235247     -0.045497      0.092011 
 N801  N    -0.014753     -0.342011      0.204503 
 N802  N    -0.485247     -0.204503      0.157989 
 N803  N    -0.264753     -0.407989      0.045497 
 N804  N    -0.264753     -0.454503      0.092011 
 N805  N    -0.485247     -0.342011      0.295497 
 N806  N    -0.014753     -0.295497      0.157989 
 N807  N    -0.235247     -0.407989      0.454503 
 N808  N    -0.454503     -0.407989      0.235247 
 N809  N    -0.295497     -0.342011      0.485247 
 N810  N    -0.204503     -0.485247      0.157989 
 N811  N    -0.045497     -0.407989      0.264753 
 N812  N    -0.454503     -0.264753      0.092011 
 N813  N    -0.204503     -0.342011      0.014753 
 N814  N    -0.295497     -0.014753      0.157989 
 N815  N    -0.045497     -0.235247      0.092011 
 Zn816  Zn     0.375000      0.250000      0.500000 
 Zn817  Zn     0.375000      0.000000     -0.250000 
 Zn818  Zn     0.000000      0.250000     -0.125000 
 Zn819  Zn     0.250000      0.375000      0.500000 
 Zn820  Zn     0.250000      0.000000     -0.125000 
 Zn821  Zn     0.000000      0.375000     -0.250000 
 Zn822  Zn     0.125000      0.000000     -0.250000 
 Zn823  Zn     0.125000      0.250000      0.500000 
 Zn824  Zn     0.250000      0.000000     -0.375000 
 Zn825  Zn     0.000000      0.125000     -0.250000 
 Zn826  Zn     0.000000      0.250000     -0.375000 
 Zn827  Zn     0.250000      0.125000      0.500000 
 H828  H     0.381395      0.180357     -0.060802 
 H829  H     0.368605      0.310802     -0.069643 
 H830  H     0.381395      0.319643     -0.439198 
 H831  H     0.368605      0.189198     -0.430357 
 H832  H     0.368605      0.069643     -0.310802 
 H833  H     0.381395      0.060802     -0.180357 
 H834  H     0.368605      0.430357     -0.189198 
 H835  H     0.381395      0.439198     -0.319643 
 H836  H     0.069643      0.189198     -0.131395 
 H837  H     0.180357      0.381395     -0.060802 
 H838  H     0.319643      0.060802     -0.118605 
 H839  H     0.430357      0.368605     -0.189198 
 H840  H     0.430357      0.310802     -0.131395 
 H841  H     0.319643      0.381395     -0.439198 
 H842  H     0.180357      0.439198     -0.118605 
 H843  H     0.069643      0.368605     -0.310802 
 H844  H     0.310802      0.368605     -0.069643 
 H845  H     0.439198      0.381395     -0.319643 
 H846  H     0.060802      0.319643     -0.118605 
 H847  H     0.189198      0.368605     -0.430357 
 H848  H     0.310802      0.430357     -0.131395 
 H849  H     0.060802      0.381395     -0.180357 
 H850  H     0.439198      0.180357     -0.118605 
 H851  H     0.189198      0.069643     -0.131395 
 H852  H     0.131395      0.430357     -0.310802 
 H853  H     0.118605      0.060802     -0.319643 
 H854  H     0.131395      0.069643     -0.189198 
 H855  H     0.118605      0.439198     -0.180357 
 H856  H     0.118605      0.319643     -0.060802 
 H857  H     0.131395      0.310802     -0.430357 
 H858  H     0.118605      0.180357     -0.439198 
 H859  H     0.131395      0.189198     -0.069643 
 H860  H     0.319643      0.439198     -0.381395 
 H861  H     0.430357      0.131395     -0.310802 
 H862  H     0.069643      0.310802     -0.368605 
 H863  H     0.180357      0.118605     -0.439198 
 H864  H     0.180357      0.060802     -0.381395 
 H865  H     0.069643      0.131395     -0.189198 
 H866  H     0.430357      0.189198     -0.368605 
 H867  H     0.319643      0.118605     -0.060802 
 H868  H     0.060802      0.118605     -0.319643 
 H869  H     0.189198      0.131395     -0.069643 
 H870  H     0.310802      0.069643     -0.368605 
 H871  H     0.439198      0.118605     -0.180357 
 H872  H     0.060802      0.180357     -0.381395 
 H873  H     0.310802      0.131395     -0.430357 
 H874  H     0.189198      0.430357     -0.368605 
 H875  H     0.439198      0.319643     -0.381395 
 C876  C     0.438535      0.254019     -0.061465 
 C877  C     0.311465      0.311465     -0.495981 
 C878  C     0.188535      0.495981     -0.188535 
 C879  C     0.311465      0.188535     -0.004019 
 C880  C     0.311465      0.495981     -0.311465 
 C881  C     0.188535      0.311465     -0.004019 
 C882  C     0.311465      0.004019     -0.188535 
 C883  C     0.438535      0.438535     -0.245981 
 C884  C     0.495981      0.188535     -0.188535 
 C885  C     0.254019      0.438535     -0.061465 
 C886  C     0.495981      0.311465     -0.311465 
 C887  C     0.004019      0.311465     -0.188535 
 C888  C     0.404153      0.201512     -0.067358 
 C889  C     0.345847      0.317358     -0.048488 
 C890  C     0.404153      0.298488     -0.432642 
 C891  C     0.345847      0.182642     -0.451512 
 C892  C     0.345847      0.048488     -0.317358 
 C893  C     0.404153      0.067358     -0.201512 
 C894  C     0.345847      0.451512     -0.182642 
 C895  C     0.404153      0.432642     -0.298488 
 C896  C     0.048488      0.182642     -0.154153 
 C897  C     0.201512      0.404153     -0.067358 
 C898  C     0.298488      0.067358     -0.095847 
 C899  C     0.451512      0.345847     -0.182642 
 C900  C     0.451512      0.317358     -0.154153 
 C901  C     0.298488      0.404153     -0.432642 
 C902  C     0.201512      0.432642     -0.095847 
 C903  C     0.048488      0.345847     -0.317358 
 C904  C     0.317358      0.345847     -0.048488 
 C905  C     0.432642      0.404153     -0.298488 
 C906  C     0.067358      0.298488     -0.095847 
 C907  C     0.182642      0.345847     -0.451512 
 C908  C     0.317358      0.451512     -0.154153 
 C909  C     0.067358      0.404153     -0.201512 
 C910  C     0.432642      0.201512     -0.095847 
 C911  C     0.182642      0.048488     -0.154153 
 C912  C     0.188535      0.004019     -0.311465 
 C913  C     0.061465      0.061465     -0.245981 
 C914  C     0.438535      0.245981     -0.438535 
 C915  C     0.061465      0.438535     -0.254019 
 C916  C     0.061465      0.245981     -0.061465 
 C917  C     0.438535      0.061465     -0.254019 
 C918  C     0.061465      0.254019     -0.438535 
 C919  C     0.188535      0.188535     -0.495981 
 C920  C     0.245981      0.438535     -0.438535 
 C921  C     0.004019      0.188535     -0.311465 
 C922  C     0.245981      0.061465     -0.061465 
 C923  C     0.254019      0.061465     -0.438535 
 C924  C     0.154153      0.451512     -0.317358 
 C925  C     0.095847      0.067358     -0.298488 
 C926  C     0.154153      0.048488     -0.182642 
 C927  C     0.095847      0.432642     -0.201512 
 C928  C     0.095847      0.298488     -0.067358 
 C929  C     0.154153      0.317358     -0.451512 
 C930  C     0.095847      0.201512     -0.432642 
 C931  C     0.154153      0.182642     -0.048488 
 C932  C     0.298488      0.432642     -0.404153 
 C933  C     0.451512      0.154153     -0.317358 
 C934  C     0.048488      0.317358     -0.345847 
 C935  C     0.201512      0.095847     -0.432642 
 C936  C     0.201512      0.067358     -0.404153 
 C937  C     0.048488      0.154153     -0.182642 
 C938  C     0.451512      0.182642     -0.345847 
 C939  C     0.298488      0.095847     -0.067358 
 C940  C     0.067358      0.095847     -0.298488 
 C941  C     0.182642      0.154153     -0.048488 
 C942  C     0.317358      0.048488     -0.345847 
 C943  C     0.432642      0.095847     -0.201512 
 C944  C     0.067358      0.201512     -0.404153 
 C945  C     0.317358      0.154153     -0.451512 
 C946  C     0.182642      0.451512     -0.345847 
 C947  C     0.432642      0.298488     -0.404153 
 Br948  Br     0.457620      0.301523     -0.042380 
 Br949  Br     0.292380      0.292380     -0.448477 
 Br950  Br     0.207620      0.448477     -0.207620 
 Br951  Br     0.292380      0.207620     -0.051523 
 Br952  Br     0.292380      0.448477     -0.292380 
 Br953  Br     0.207620      0.292380     -0.051523 
 Br954  Br     0.292380      0.051523     -0.207620 
 Br955  Br     0.457620      0.457620     -0.198477 
 Br956  Br     0.448477      0.207620     -0.207620 
 Br957  Br     0.301523      0.457620     -0.042380 
 Br958  Br     0.448477      0.292380     -0.292380 
 Br959  Br     0.051523      0.292380     -0.207620 
 Br960  Br     0.207620      0.051523     -0.292380 
 Br961  Br     0.042380      0.042380     -0.198477 
 Br962  Br     0.457620      0.198477     -0.457620 
 Br963  Br     0.042380      0.457620     -0.301523 
 Br964  Br     0.042380      0.198477     -0.042380 
 Br965  Br     0.457620      0.042380     -0.301523 
 Br966  Br     0.042380      0.301523     -0.457620 
 Br967  Br     0.207620      0.207620     -0.448477 
 Br968  Br     0.198477      0.457620     -0.457620 
 Br969  Br     0.051523      0.207620     -0.292380 
 Br970  Br     0.198477      0.042380     -0.042380 
 Br971  Br     0.301523      0.042380     -0.457620 
 N972  N     0.407989      0.235247     -0.045497 
 N973  N     0.342011      0.295497     -0.014753 
 N974  N     0.407989      0.264753     -0.454503 
 N975  N     0.342011      0.204503     -0.485247 
 N976  N     0.342011      0.014753     -0.295497 
 N977  N     0.407989      0.045497     -0.235247 
 N978  N     0.342011      0.485247     -0.204503 
 N979  N     0.407989      0.454503     -0.264753 
 N980  N     0.014753      0.204503     -0.157989 
 N981  N     0.235247      0.407989     -0.045497 
 N982  N     0.264753      0.045497     -0.092011 
 N983  N     0.485247      0.342011     -0.204503 
 N984  N     0.485247      0.295497     -0.157989 
 N985  N     0.264753      0.407989     -0.454503 
 N986  N     0.235247      0.454503     -0.092011 
 N987  N     0.014753      0.342011     -0.295497 
 N988  N     0.295497      0.342011     -0.014753 
 N989  N     0.454503      0.407989     -0.264753 
 N990  N     0.045497      0.264753     -0.092011 
 N991  N     0.204503      0.342011     -0.485247 
 N992  N     0.295497      0.485247     -0.157989 
 N993  N     0.045497      0.407989     -0.235247 
 N994  N     0.454503      0.235247     -0.092011 
 N995  N     0.204503      0.014753     -0.157989 
 N996  N     0.157989      0.485247     -0.295497 
 N997  N     0.092011      0.045497     -0.264753 
 N998  N     0.157989      0.014753     -0.204503 
 N999  N     0.092011      0.454503     -0.235247 
 N1000  N     0.092011      0.264753     -0.045497 
 N1001  N     0.157989      0.295497     -0.485247 
 N1002  N     0.092011      0.235247     -0.454503 
 N1003  N     0.157989      0.204503     -0.014753 
 N1004  N     0.264753      0.454503     -0.407989 
 N1005  N     0.485247      0.157989     -0.295497 
 N1006  N     0.014753      0.295497     -0.342011 
 N1007  N     0.235247      0.092011     -0.454503 
 N1008  N     0.235247      0.045497     -0.407989 
 N1009  N     0.014753      0.157989     -0.204503 
 N1010  N     0.485247      0.204503     -0.342011 
 N1011  N     0.264753      0.092011     -0.045497 
 N1012  N     0.045497      0.092011     -0.264753 
 N1013  N     0.204503      0.157989     -0.014753 
 N1014  N     0.295497      0.014753     -0.342011 
 N1015  N     0.454503      0.092011     -0.235247 
 N1016  N     0.045497      0.235247     -0.407989 
 N1017  N     0.295497      0.157989     -0.485247 
 N1018  N     0.204503      0.485247     -0.342011 
 N1019  N     0.454503      0.264753     -0.407989 
 Zn1020  Zn    -0.125000      0.250000      0.500000 
 Zn1021  Zn    -0.125000      0.000000     -0.250000 
 Zn1022  Zn     0.500000      0.250000     -0.125000 
 Zn1023  Zn    -0.250000      0.375000      0.500000 
 Zn1024  Zn    -0.250000      0.000000     -0.125000 
 Zn1025  Zn     0.500000      0.375000     -0.250000 
 Zn1026  Zn    -0.375000      0.000000     -0.250000 
 Zn1027  Zn    -0.375000      0.250000      0.500000 
 Zn1028  Zn    -0.250000      0.000000     -0.375000 
 Zn1029  Zn     0.500000      0.125000     -0.250000 
 Zn1030  Zn     0.500000      0.250000     -0.375000 
 Zn1031  Zn    -0.250000      0.125000      0.500000 
 H1032  H    -0.118605      0.180357     -0.060802 
 H1033  H    -0.131395      0.310802     -0.069643 
 H1034  H    -0.118605      0.319643     -0.439198 
 H1035  H    -0.131395      0.189198     -0.430357 
 H1036  H    -0.131395      0.069643     -0.310802 
 H1037  H    -0.118605      0.060802     -0.180357 
 H1038  H    -0.131395      0.430357     -0.189198 
 H1039  H    -0.118605      0.439198     -0.319643 
 H1040  H    -0.430357      0.189198     -0.131395 
 H1041  H    -0.319643      0.381395     -0.060802 
 H1042  H    -0.180357      0.060802     -0.118605 
 H1043  H    -0.069643      0.368605     -0.189198 
 H1044  H    -0.069643      0.310802     -0.131395 
 H1045  H    -0.180357      0.381395     -0.439198 
 H1046  H    -0.319643      0.439198     -0.118605 
 H1047  H    -0.430357      0.368605     -0.310802 
 H1048  H    -0.189198      0.368605     -0.069643 
 H1049  H    -0.060802      0.381395     -0.319643 
 H1050  H    -0.439198      0.319643     -0.118605 
 H1051  H    -0.310802      0.368605     -0.430357 
 H1052  H    -0.189198      0.430357     -0.131395 
 H1053  H    -0.439198      0.381395     -0.180357 
 H1054  H    -0.060802      0.180357     -0.118605 
 H1055  H    -0.310802      0.069643     -0.131395 
 H1056  H    -0.368605      0.430357     -0.310802 
 H1057  H    -0.381395      0.060802     -0.319643 
 H1058  H    -0.368605      0.069643     -0.189198 
 H1059  H    -0.381395      0.439198     -0.180357 
 H1060  H    -0.381395      0.319643     -0.060802 
 H1061  H    -0.368605      0.310802     -0.430357 
 H1062  H    -0.381395      0.180357     -0.439198 
 H1063  H    -0.368605      0.189198     -0.069643 
 H1064  H    -0.180357      0.439198     -0.381395 
 H1065  H    -0.069643      0.131395     -0.310802 
 H1066  H    -0.430357      0.310802     -0.368605 
 H1067  H    -0.319643      0.118605     -0.439198 
 H1068  H    -0.319643      0.060802     -0.381395 
 H1069  H    -0.430357      0.131395     -0.189198 
 H1070  H    -0.069643      0.189198     -0.368605 
 H1071  H    -0.180357      0.118605     -0.060802 
 H1072  H    -0.439198      0.118605     -0.319643 
 H1073  H    -0.310802      0.131395     -0.069643 
 H1074  H    -0.189198      0.069643     -0.368605 
 H1075  H    -0.060802      0.118605     -0.180357 
 H1076  H    -0.439198      0.180357     -0.381395 
 H1077  H    -0.189198      0.131395     -0.430357 
 H1078  H    -0.310802      0.430357     -0.368605 
 H1079  H    -0.060802      0.319643     -0.381395 
 C1080  C    -0.061465      0.254019     -0.061465 
 C1081  C    -0.188535      0.311465     -0.495981 
 C1082  C    -0.311465      0.495981     -0.188535 
 C1083  C    -0.188535      0.188535     -0.004019 
 C1084  C    -0.188535      0.495981     -0.311465 
 C1085  C    -0.311465      0.311465     -0.004019 
 C1086  C    -0.188535      0.004019     -0.188535 
 C1087  C    -0.061465      0.438535     -0.245981 
 C1088  C    -0.004019      0.188535     -0.188535 
 C1089  C    -0.245981      0.438535     -0.061465 
 C1090  C    -0.004019      0.311465     -0.311465 
 C1091  C    -0.495981      0.311465     -0.188535 
 C1092  C    -0.095847      0.201512     -0.067358 
 C1093  C    -0.154153      0.317358     -0.048488 
 C1094  C    -0.095847      0.298488     -0.432642 
 C1095  C    -0.154153      0.182642     -0.451512 
 C1096  C    -0.154153      0.048488     -0.317358 
 C1097  C    -0.095847      0.067358     -0.201512 
 C1098  C    -0.154153      0.451512     -0.182642 
 C1099  C    -0.095847      0.432642     -0.298488 
 C1100  C    -0.451512      0.182642     -0.154153 
 C1101  C    -0.298488      0.404153     -0.067358 
 C1102  C    -0.201512      0.067358     -0.095847 
 C1103  C    -0.048488      0.345847     -0.182642 
 C1104  C    -0.048488      0.317358     -0.154153 
 C1105  C    -0.201512      0.404153     -0.432642 
 C1106  C    -0.298488      0.432642     -0.095847 
 C1107  C    -0.451512      0.345847     -0.317358 
 C1108  C    -0.182642      0.345847     -0.048488 
 C1109  C    -0.067358      0.404153     -0.298488 
 C1110  C    -0.432642      0.298488     -0.095847 
 C1111  C    -0.317358      0.345847     -0.451512 
 C1112  C    -0.182642      0.451512     -0.154153 
 C1113  C    -0.432642      0.404153     -0.201512 
 C1114  C    -0.067358      0.201512     -0.095847 
 C1115  C    -0.317358      0.048488     -0.154153 
 C1116  C    -0.311465      0.004019     -0.311465 
 C1117  C    -0.438535      0.061465     -0.245981 
 C1118  C    -0.061465      0.245981     -0.438535 
 C1119  C    -0.438535      0.438535     -0.254019 
 C1120  C    -0.438535      0.245981     -0.061465 
 C1121  C    -0.061465      0.061465     -0.254019 
 C1122  C    -0.438535      0.254019     -0.438535 
 C1123  C    -0.311465      0.188535     -0.495981 
 C1124  C    -0.254019      0.438535     -0.438535 
 C1125  C    -0.495981      0.188535     -0.311465 
 C1126  C    -0.254019      0.061465     -0.061465 
 C1127  C    -0.245981      0.061465     -0.438535 
 C1128  C    -0.345847      0.451512     -0.317358 
 C1129  C    -0.404153      0.067358     -0.298488 
 C1130  C    -0.345847      0.048488     -0.182642 
 C1131  C    -0.404153      0.432642     -0.201512 
 C1132  C    -0.404153      0.298488     -0.067358 
 C1133  C    -0.345847      0.317358     -0.451512 
 C1134  C    -0.404153      0.201512     -0.432642 
 C1135  C    -0.345847      0.182642     -0.048488 
 C1136  C    -0.201512      0.432642     -0.404153 
 C1137  C    -0.048488      0.154153     -0.317358 
 C1138  C    -0.451512      0.317358     -0.345847 
 C1139  C    -0.298488      0.095847     -0.432642 
 C1140  C    -0.298488      0.067358     -0.404153 
 C1141  C    -0.451512      0.154153     -0.182642 
 C1142  C    -0.048488      0.182642     -0.345847 
 C1143  C    -0.201512      0.095847     -0.067358 
 C1144  C    -0.432642      0.095847     -0.298488 
 C1145  C    -0.317358      0.154153     -0.048488 
 C1146  C    -0.182642      0.048488     -0.345847 
 C1147  C    -0.067358      0.095847     -0.201512 
 C1148  C    -0.432642      0.201512     -0.404153 
 C1149  C    -0.182642      0.154153     -0.451512 
 C1150  C    -0.317358      0.451512     -0.345847 
 C1151  C    -0.067358      0.298488     -0.404153 
 Br1152  Br    -0.042380      0.301523     -0.042380 
 Br1153  Br    -0.207620      0.292380     -0.448477 
 Br1154  Br    -0.292380      0.448477     -0.207620 
 Br1155  Br    -0.207620      0.207620     -0.051523 
 Br1156  Br    -0.207620      0.448477     -0.292380 
 Br1157  Br    -0.292380      0.292380     -0.051523 
 Br1158  Br    -0.207620      0.051523     -0.207620 
 Br1159  Br    -0.042380      0.457620     -0.198477 
 Br1160  Br    -0.051523      0.207620     -0.207620 
 Br1161  Br    -0.198477      0.457620     -0.042380 
 Br1162  Br    -0.051523      0.292380     -0.292380 
 Br1163  Br    -0.448477      0.292380     -0.207620 
 Br1164  Br    -0.292380      0.051523     -0.292380 
 Br1165  Br    -0.457620      0.042380     -0.198477 
 Br1166  Br    -0.042380      0.198477     -0.457620 
 Br1167  Br    -0.457620      0.457620     -0.301523 
 Br1168  Br    -0.457620      0.198477     -0.042380 
 Br1169  Br    -0.042380      0.042380     -0.301523 
 Br1170  Br    -0.457620      0.301523     -0.457620 
 Br1171  Br    -0.292380      0.207620     -0.448477 
 Br1172  Br    -0.301523      0.457620     -0.457620 
 Br1173  Br    -0.448477      0.207620     -0.292380 
 Br1174  Br    -0.301523      0.042380     -0.042380 
 Br1175  Br    -0.198477      0.042380     -0.457620 
 N1176  N    -0.092011      0.235247     -0.045497 
 N1177  N    -0.157989      0.295497     -0.014753 
 N1178  N    -0.092011      0.264753     -0.454503 
 N1179  N    -0.157989      0.204503     -0.485247 
 N1180  N    -0.157989      0.014753     -0.295497 
 N1181  N    -0.092011      0.045497     -0.235247 
 N1182  N    -0.157989      0.485247     -0.204503 
 N1183  N    -0.092011      0.454503     -0.264753 
 N1184  N    -0.485247      0.204503     -0.157989 
 N1185  N    -0.264753      0.407989     -0.045497 
 N1186  N    -0.235247      0.045497     -0.092011 
 N1187  N    -0.014753      0.342011     -0.204503 
 N1188  N    -0.014753      0.295497     -0.157989 
 N1189  N    -0.235247      0.407989     -0.454503 
 N1190  N    -0.264753      0.454503     -0.092011 
 N1191  N    -0.485247      0.342011     -0.295497 
 N1192  N    -0.204503      0.342011     -0.014753 
 N1193  N    -0.045497      0.407989     -0.264753 
 N1194  N    -0.454503      0.264753     -0.092011 
 N1195  N    -0.295497      0.342011     -0.485247 
 N1196  N    -0.204503      0.485247     -0.157989 
 N1197  N    -0.454503      0.407989     -0.235247 
 N1198  N    -0.045497      0.235247     -0.092011 
 N1199  N    -0.295497      0.014753     -0.157989 
 N1200  N    -0.342011      0.485247     -0.295497 
 N1201  N    -0.407989      0.045497     -0.264753 
 N1202  N    -0.342011      0.014753     -0.204503 
 N1203  N    -0.407989      0.454503     -0.235247 
 N1204  N    -0.407989      0.264753     -0.045497 
 N1205  N    -0.342011      0.295497     -0.485247 
 N1206  N    -0.407989      0.235247     -0.454503 
 N1207  N    -0.342011      0.204503     -0.014753 
 N1208  N    -0.235247      0.454503     -0.407989 
 N1209  N    -0.014753      0.157989     -0.295497 
 N1210  N    -0.485247      0.295497     -0.342011 
 N1211  N    -0.264753      0.092011     -0.454503 
 N1212  N    -0.264753      0.045497     -0.407989 
 N1213  N    -0.485247      0.157989     -0.204503 
 N1214  N    -0.014753      0.204503     -0.342011 
 N1215  N    -0.235247      0.092011     -0.045497 
 N1216  N    -0.454503      0.092011     -0.264753 
 N1217  N    -0.295497      0.157989     -0.014753 
 N1218  N    -0.204503      0.014753     -0.342011 
 N1219  N    -0.045497      0.092011     -0.235247 
 N1220  N    -0.454503      0.235247     -0.407989 
 N1221  N    -0.204503      0.157989     -0.485247 
 N1222  N    -0.295497      0.485247     -0.342011 
 N1223  N    -0.045497      0.264753     -0.407989 
 Zn1224  Zn     0.375000     -0.250000      0.500000 
 Zn1225  Zn     0.375000      0.500000     -0.250000 
 Zn1226  Zn     0.000000     -0.250000     -0.125000 
 Zn1227  Zn     0.250000     -0.125000      0.500000 
 Zn1228  Zn     0.250000      0.500000     -0.125000 
 Zn1229  Zn     0.000000     -0.125000     -0.250000 
 Zn1230  Zn     0.125000      0.500000     -0.250000 
 Zn1231  Zn     0.125000     -0.250000      0.500000 
 Zn1232  Zn     0.250000      0.500000     -0.375000 
 Zn1233  Zn     0.000000     -0.375000     -0.250000 
 Zn1234  Zn     0.000000     -0.250000     -0.375000 
 Zn1235  Zn     0.250000     -0.375000      0.500000 
 H1236  H     0.381395     -0.319643     -0.060802 
 H1237  H     0.368605     -0.189198     -0.069643 
 H1238  H     0.381395     -0.180357     -0.439198 
 H1239  H     0.368605     -0.310802     -0.430357 
 H1240  H     0.368605     -0.430357     -0.310802 
 H1241  H     0.381395     -0.439198     -0.180357 
 H1242  H     0.368605     -0.069643     -0.189198 
 H1243  H     0.381395     -0.060802     -0.319643 
 H1244  H     0.069643     -0.310802     -0.131395 
 H1245  H     0.180357     -0.118605     -0.060802 
 H1246  H     0.319643     -0.439198     -0.118605 
 H1247  H     0.430357     -0.131395     -0.189198 
 H1248  H     0.430357     -0.189198     -0.131395 
 H1249  H     0.319643     -0.118605     -0.439198 
 H1250  H     0.180357     -0.060802     -0.118605 
 H1251  H     0.069643     -0.131395     -0.310802 
 H1252  H     0.310802     -0.131395     -0.069643 
 H1253  H     0.439198     -0.118605     -0.319643 
 H1254  H     0.060802     -0.180357     -0.118605 
 H1255  H     0.189198     -0.131395     -0.430357 
 H1256  H     0.310802     -0.069643     -0.131395 
 H1257  H     0.060802     -0.118605     -0.180357 
 H1258  H     0.439198     -0.319643     -0.118605 
 H1259  H     0.189198     -0.430357     -0.131395 
 H1260  H     0.131395     -0.069643     -0.310802 
 H1261  H     0.118605     -0.439198     -0.319643 
 H1262  H     0.131395     -0.430357     -0.189198 
 H1263  H     0.118605     -0.060802     -0.180357 
 H1264  H     0.118605     -0.180357     -0.060802 
 H1265  H     0.131395     -0.189198     -0.430357 
 H1266  H     0.118605     -0.319643     -0.439198 
 H1267  H     0.131395     -0.310802     -0.069643 
 H1268  H     0.319643     -0.060802     -0.381395 
 H1269  H     0.430357     -0.368605     -0.310802 
 H1270  H     0.069643     -0.189198     -0.368605 
 H1271  H     0.180357     -0.381395     -0.439198 
 H1272  H     0.180357     -0.439198     -0.381395 
 H1273  H     0.069643     -0.368605     -0.189198 
 H1274  H     0.430357     -0.310802     -0.368605 
 H1275  H     0.319643     -0.381395     -0.060802 
 H1276  H     0.060802     -0.381395     -0.319643 
 H1277  H     0.189198     -0.368605     -0.069643 
 H1278  H     0.310802     -0.430357     -0.368605 
 H1279  H     0.439198     -0.381395     -0.180357 
 H1280  H     0.060802     -0.319643     -0.381395 
 H1281  H     0.310802     -0.368605     -0.430357 
 H1282  H     0.189198     -0.069643     -0.368605 
 H1283  H     0.439198     -0.180357     -0.381395 
 C1284  C     0.438535     -0.245981     -0.061465 
 C1285  C     0.311465     -0.188535     -0.495981 
 C1286  C     0.188535     -0.004019     -0.188535 
 C1287  C     0.311465     -0.311465     -0.004019 
 C1288  C     0.311465     -0.004019     -0.311465 
 C1289  C     0.188535     -0.188535     -0.004019 
 C1290  C     0.311465     -0.495981     -0.188535 
 C1291  C     0.438535     -0.061465     -0.245981 
 C1292  C     0.495981     -0.311465     -0.188535 
 C1293  C     0.254019     -0.061465     -0.061465 
 C1294  C     0.495981     -0.188535     -0.311465 
 C1295  C     0.004019     -0.188535     -0.188535 
 C1296  C     0.404153     -0.298488     -0.067358 
 C1297  C     0.345847     -0.182642     -0.048488 
 C1298  C     0.404153     -0.201512     -0.432642 
 C1299  C     0.345847     -0.317358     -0.451512 
 C1300  C     0.345847     -0.451512     -0.317358 
 C1301  C     0.404153     -0.432642     -0.201512 
 C1302  C     0.345847     -0.048488     -0.182642 
 C1303  C     0.404153     -0.067358     -0.298488 
 C1304  C     0.048488     -0.317358     -0.154153 
 C1305  C     0.201512     -0.095847     -0.067358 
 C1306  C     0.298488     -0.432642     -0.095847 
 C1307  C     0.451512     -0.154153     -0.182642 
 C1308  C     0.451512     -0.182642     -0.154153 
 C1309  C     0.298488     -0.095847     -0.432642 
 C1310  C     0.201512     -0.067358     -0.095847 
 C1311  C     0.048488     -0.154153     -0.317358 
 C1312  C     0.317358     -0.154153     -0.048488 
 C1313  C     0.432642     -0.095847     -0.298488 
 C1314  C     0.067358     -0.201512     -0.095847 
 C1315  C     0.182642     -0.154153     -0.451512 
 C1316  C     0.317358     -0.048488     -0.154153 
 C1317  C     0.067358     -0.095847     -0.201512 
 C1318  C     0.432642     -0.298488     -0.095847 
 C1319  C     0.182642     -0.451512     -0.154153 
 C1320  C     0.188535     -0.495981     -0.311465 
 C1321  C     0.061465     -0.438535     -0.245981 
 C1322  C     0.438535     -0.254019     -0.438535 
 C1323  C     0.061465     -0.061465     -0.254019 
 C1324  C     0.061465     -0.254019     -0.061465 
 C1325  C     0.438535     -0.438535     -0.254019 
 C1326  C     0.061465     -0.245981     -0.438535 
 C1327  C     0.188535     -0.311465     -0.495981 
 C1328  C     0.245981     -0.061465     -0.438535 
 C1329  C     0.004019     -0.311465     -0.311465 
 C1330  C     0.245981     -0.438535     -0.061465 
 C1331  C     0.254019     -0.438535     -0.438535 
 C1332  C     0.154153     -0.048488     -0.317358 
 C1333  C     0.095847     -0.432642     -0.298488 
 C1334  C     0.154153     -0.451512     -0.182642 
 C1335  C     0.095847     -0.067358     -0.201512 
 C1336  C     0.095847     -0.201512     -0.067358 
 C1337  C     0.154153     -0.182642     -0.451512 
 C1338  C     0.095847     -0.298488     -0.432642 
 C1339  C     0.154153     -0.317358     -0.048488 
 C1340  C     0.298488     -0.067358     -0.404153 
 C1341  C     0.451512     -0.345847     -0.317358 
 C1342  C     0.048488     -0.182642     -0.345847 
 C1343  C     0.201512     -0.404153     -0.432642 
 C1344  C     0.201512     -0.432642     -0.404153 
 C1345  C     0.048488     -0.345847     -0.182642 
 C1346  C     0.451512     -0.317358     -0.345847 
 C1347  C     0.298488     -0.404153     -0.067358 
 C1348  C     0.067358     -0.404153     -0.298488 
 C1349  C     0.182642     -0.345847     -0.048488 
 C1350  C     0.317358     -0.451512     -0.345847 
 C1351  C     0.432642     -0.404153     -0.201512 
 C1352  C     0.067358     -0.298488     -0.404153 
 C1353  C     0.317358     -0.345847     -0.451512 
 C1354  C     0.182642     -0.048488     -0.345847 
 C1355  C     0.432642     -0.201512     -0.404153 
 Br1356  Br     0.457620     -0.198477     -0.042380 
 Br1357  Br     0.292380     -0.207620     -0.448477 
 Br1358  Br     0.207620     -0.051523     -0.207620 
 Br1359  Br     0.292380     -0.292380     -0.051523 
 Br1360  Br     0.292380     -0.051523     -0.292380 
 Br1361  Br     0.207620     -0.207620     -0.051523 
 Br1362  Br     0.292380     -0.448477     -0.207620 
 Br1363  Br     0.457620     -0.042380     -0.198477 
 Br1364  Br     0.448477     -0.292380     -0.207620 
 Br1365  Br     0.301523     -0.042380     -0.042380 
 Br1366  Br     0.448477     -0.207620     -0.292380 
 Br1367  Br     0.051523     -0.207620     -0.207620 
 Br1368  Br     0.207620     -0.448477     -0.292380 
 Br1369  Br     0.042380     -0.457620     -0.198477 
 Br1370  Br     0.457620     -0.301523     -0.457620 
 Br1371  Br     0.042380     -0.042380     -0.301523 
 Br1372  Br     0.042380     -0.301523     -0.042380 
 Br1373  Br     0.457620     -0.457620     -0.301523 
 Br1374  Br     0.042380     -0.198477     -0.457620 
 Br1375  Br     0.207620     -0.292380     -0.448477 
 Br1376  Br     0.198477     -0.042380     -0.457620 
 Br1377  Br     0.051523     -0.292380     -0.292380 
 Br1378  Br     0.198477     -0.457620     -0.042380 
 Br1379  Br     0.301523     -0.457620     -0.457620 
 N1380  N     0.407989     -0.264753     -0.045497 
 N1381  N     0.342011     -0.204503     -0.014753 
 N1382  N     0.407989     -0.235247     -0.454503 
 N1383  N     0.342011     -0.295497     -0.485247 
 N1384  N     0.342011     -0.485247     -0.295497 
 N1385  N     0.407989     -0.454503     -0.235247 
 N1386  N     0.342011     -0.014753     -0.204503 
 N1387  N     0.407989     -0.045497     -0.264753 
 N1388  N     0.014753     -0.295497     -0.157989 
 N1389  N     0.235247     -0.092011     -0.045497 
 N1390  N     0.264753     -0.454503     -0.092011 
 N1391  N     0.485247     -0.157989     -0.204503 
 N1392  N     0.485247     -0.204503     -0.157989 
 N1393  N     0.264753     -0.092011     -0.454503 
 N1394  N     0.235247     -0.045497     -0.092011 
 N1395  N     0.014753     -0.157989     -0.295497 
 N1396  N     0.295497     -0.157989     -0.014753 
 N1397  N     0.454503     -0.092011     -0.264753 
 N1398  N     0.045497     -0.235247     -0.092011 
 N1399  N     0.204503     -0.157989     -0.485247 
 N1400  N     0.295497     -0.014753     -0.157989 
 N1401  N     0.045497     -0.092011     -0.235247 
 N1402  N     0.454503     -0.264753     -0.092011 
 N1403  N     0.204503     -0.485247     -0.157989 
 N1404  N     0.157989     -0.014753     -0.295497 
 N1405  N     0.092011     -0.454503     -0.264753 
 N1406  N     0.157989     -0.485247     -0.204503 
 N1407  N     0.092011     -0.045497     -0.235247 
 N1408  N     0.092011     -0.235247     -0.045497 
 N1409  N     0.157989     -0.204503     -0.485247 
 N1410  N     0.092011     -0.264753     -0.454503 
 N1411  N     0.157989     -0.295497     -0.014753 
 N1412  N     0.264753     -0.045497     -0.407989 
 N1413  N     0.485247     -0.342011     -0.295497 
 N1414  N     0.014753     -0.204503     -0.342011 
 N1415  N     0.235247     -0.407989     -0.454503 
 N1416  N     0.235247     -0.454503     -0.407989 
 N1417  N     0.014753     -0.342011     -0.204503 
 N1418  N     0.485247     -0.295497     -0.342011 
 N1419  N     0.264753     -0.407989     -0.045497 
 N1420  N     0.045497     -0.407989     -0.264753 
 N1421  N     0.204503     -0.342011     -0.014753 
 N1422  N     0.295497     -0.485247     -0.342011 
 N1423  N     0.454503     -0.407989     -0.235247 
 N1424  N     0.045497     -0.264753     -0.407989 
 N1425  N     0.295497     -0.342011     -0.485247 
 N1426  N     0.204503     -0.014753     -0.342011 
 N1427  N     0.454503     -0.235247     -0.407989 
 Zn1428  Zn    -0.125000     -0.250000      0.500000 
 Zn1429  Zn    -0.125000      0.500000     -0.250000 
 Zn1430  Zn     0.500000     -0.250000     -0.125000 
 Zn1431  Zn    -0.250000     -0.125000      0.500000 
 Zn1432  Zn    -0.250000      0.500000     -0.125000 
 Zn1433  Zn     0.500000     -0.125000     -0.250000 
 Zn1434  Zn    -0.375000      0.500000     -0.250000 
 Zn1435  Zn    -0.375000     -0.250000      0.500000 
 Zn1436  Zn    -0.250000      0.500000     -0.375000 
 Zn1437  Zn     0.500000     -0.375000     -0.250000 
 Zn1438  Zn     0.500000     -0.250000     -0.375000 
 Zn1439  Zn    -0.250000     -0.375000      0.500000 
 H1440  H    -0.118605     -0.319643     -0.060802 
 H1441  H    -0.131395     -0.189198     -0.069643 
 H1442  H    -0.118605     -0.180357     -0.439198 
 H1443  H    -0.131395     -0.310802     -0.430357 
 H1444  H    -0.131395     -0.430357     -0.310802 
 H1445  H    -0.118605     -0.439198     -0.180357 
 H1446  H    -0.131395     -0.069643     -0.189198 
 H1447  H    -0.118605     -0.060802     -0.319643 
 H1448  H    -0.430357     -0.310802     -0.131395 
 H1449  H    -0.319643     -0.118605     -0.060802 
 H1450  H    -0.180357     -0.439198     -0.118605 
 H1451  H    -0.069643     -0.131395     -0.189198 
 H1452  H    -0.069643     -0.189198     -0.131395 
 H1453  H    -0.180357     -0.118605     -0.439198 
 H1454  H    -0.319643     -0.060802     -0.118605 
 H1455  H    -0.430357     -0.131395     -0.310802 
 H1456  H    -0.189198     -0.131395     -0.069643 
 H1457  H    -0.060802     -0.118605     -0.319643 
 H1458  H    -0.439198     -0.180357     -0.118605 
 H1459  H    -0.310802     -0.131395     -0.430357 
 H1460  H    -0.189198     -0.069643     -0.131395 
 H1461  H    -0.439198     -0.118605     -0.180357 
 H1462  H    -0.060802     -0.319643     -0.118605 
 H1463  H    -0.310802     -0.430357     -0.131395 
 H1464  H    -0.368605     -0.069643     -0.310802 
 H1465  H    -0.381395     -0.439198     -0.319643 
 H1466  H    -0.368605     -0.430357     -0.189198 
 H1467  H    -0.381395     -0.060802     -0.180357 
 H1468  H    -0.381395     -0.180357     -0.060802 
 H1469  H    -0.368605     -0.189198     -0.430357 
 H1470  H    -0.381395     -0.319643     -0.439198 
 H1471  H    -0.368605     -0.310802     -0.069643 
 H1472  H    -0.180357     -0.060802     -0.381395 
 H1473  H    -0.069643     -0.368605     -0.310802 
 H1474  H    -0.430357     -0.189198     -0.368605 
 H1475  H    -0.319643     -0.381395     -0.439198 
 H1476  H    -0.319643     -0.439198     -0.381395 
 H1477  H    -0.430357     -0.368605     -0.189198 
 H1478  H    -0.069643     -0.310802     -0.368605 
 H1479  H    -0.180357     -0.381395     -0.060802 
 H1480  H    -0.439198     -0.381395     -0.319643 
 H1481  H    -0.310802     -0.368605     -0.069643 
 H1482  H    -0.189198     -0.430357     -0.368605 
 H1483  H    -0.060802     -0.381395     -0.180357 
 H1484  H    -0.439198     -0.319643     -0.381395 
 H1485  H    -0.189198     -0.368605     -0.430357 
 H1486  H    -0.310802     -0.069643     -0.368605 
 H1487  H    -0.060802     -0.180357     -0.381395 
 C1488  C    -0.061465     -0.245981     -0.061465 
 C1489  C    -0.188535     -0.188535     -0.495981 
 C1490  C    -0.311465     -0.004019     -0.188535 
 C1491  C    -0.188535     -0.311465     -0.004019 
 C1492  C    -0.188535     -0.004019     -0.311465 
 C1493  C    -0.311465     -0.188535     -0.004019 
 C1494  C    -0.188535     -0.495981     -0.188535 
 C1495  C    -0.061465     -0.061465     -0.245981 
 C1496  C    -0.004019     -0.311465     -0.188535 
 C1497  C    -0.245981     -0.061465     -0.061465 
 C1498  C    -0.004019     -0.188535     -0.311465 
 C1499  C    -0.495981     -0.188535     -0.188535 
 C1500  C    -0.095847     -0.298488     -0.067358 
 C1501  C    -0.154153     -0.182642     -0.048488 
 C1502  C    -0.095847     -0.201512     -0.432642 
 C1503  C    -0.154153     -0.317358     -0.451512 
 C1504  C    -0.154153     -0.451512     -0.317358 
 C1505  C    -0.095847     -0.432642     -0.201512 
 C1506  C    -0.154153     -0.048488     -0.182642 
 C1507  C    -0.095847     -0.067358     -0.298488 
 C1508  C    -0.451512     -0.317358     -0.154153 
 C1509  C    -0.298488     -0.095847     -0.067358 
 C1510  C    -0.201512     -0.432642     -0.095847 
 C1511  C    -0.048488     -0.154153     -0.182642 
 C1512  C    -0.048488     -0.182642     -0.154153 
 C1513  C    -0.201512     -0.095847     -0.432642 
 C1514  C    -0.298488     -0.067358     -0.095847 
 C1515  C    -0.451512     -0.154153     -0.317358 
 C1516  C    -0.182642     -0.154153     -0.048488 
 C1517  C    -0.067358     -0.095847     -0.298488 
 C1518  C    -0.432642     -0.201512     -0.095847 
 C1519  C    -0.317358     -0.154153     -0.451512 
 C1520  C    -0.182642     -0.048488     -0.154153 
 C1521  C    -0.432642     -0.095847     -0.201512 
 C1522  C    -0.067358     -0.298488     -0.095847 
 C1523  C    -0.317358     -0.451512     -0.154153 
 C1524  C    -0.311465     -0.495981     -0.311465 
 C1525  C    -0.438535     -0.438535     -0.245981 
 C1526  C    -0.061465     -0.254019     -0.438535 
 C1527  C    -0.438535     -0.061465     -0.254019 
 C1528  C    -0.438535     -0.254019     -0.061465 
 C1529  C    -0.061465     -0.438535     -0.254019 
 C1530  C    -0.438535     -0.245981     -0.438535 
 C1531  C    -0.311465     -0.311465     -0.495981 
 C1532  C    -0.254019     -0.061465     -0.438535 
 C1533  C    -0.495981     -0.311465     -0.311465 
 C1534  C    -0.254019     -0.438535     -0.061465 
 C1535  C    -0.245981     -0.438535     -0.438535 
 C1536  C    -0.345847     -0.048488     -0.317358 
 C1537  C    -0.404153     -0.432642     -0.298488 
 C1538  C    -0.345847     -0.451512     -0.182642 
 C1539  C    -0.404153     -0.067358     -0.201512 
 C1540  C    -0.404153     -0.201512     -0.067358 
 C1541  C    -0.345847     -0.182642     -0.451512 
 C1542  C    -0.404153     -0.298488     -0.432642 
 C1543  C    -0.345847     -0.317358     -0.048488 
 C1544  C    -0.201512     -0.067358     -0.404153 
 C1545  C    -0.048488     -0.345847     -0.317358 
 C1546  C    -0.451512     -0.182642     -0.345847 
 C1547  C    -0.298488     -0.404153     -0.432642 
 C1548  C    -0.298488     -0.432642     -0.404153 
 C1549  C    -0.451512     -0.345847     -0.182642 
 C1550  C    -0.048488     -0.317358     -0.345847 
 C1551  C    -0.201512     -0.404153     -0.067358 
 C1552  C    -0.432642     -0.404153     -0.298488 
 C1553  C    -0.317358     -0.345847     -0.048488 
 C1554  C    -0.182642     -0.451512     -0.345847 
 C1555  C    -0.067358     -0.404153     -0.201512 
 C1556  C    -0.432642     -0.298488     -0.404153 
 C1557  C    -0.182642     -0.345847     -0.451512 
 C1558  C    -0.317358     -0.048488     -0.345847 
 C1559  C    -0.067358     -0.201512     -0.404153 
 Br1560  Br    -0.042380     -0.198477     -0.042380 
 Br1561  Br    -0.207620     -0.207620     -0.448477 
 Br1562  Br    -0.292380     -0.051523     -0.207620 
 Br1563  Br    -0.207620     -0.292380     -0.051523 
 Br1564  Br    -0.207620     -0.051523     -0.292380 
 Br1565  Br    -0.292380     -0.207620     -0.051523 
 Br1566  Br    -0.207620     -0.448477     -0.207620 
 Br1567  Br    -0.042380     -0.042380     -0.198477 
 Br1568  Br    -0.051523     -0.292380     -0.207620 
 Br1569  Br    -0.198477     -0.042380     -0.042380 
 Br1570  Br    -0.051523     -0.207620     -0.292380 
 Br1571  Br    -0.448477     -0.207620     -0.207620 
 Br1572  Br    -0.292380     -0.448477     -0.292380 
 Br1573  Br    -0.457620     -0.457620     -0.198477 
 Br1574  Br    -0.042380     -0.301523     -0.457620 
 Br1575  Br    -0.457620     -0.042380     -0.301523 
 Br1576  Br    -0.457620     -0.301523     -0.042380 
 Br1577  Br    -0.042380     -0.457620     -0.301523 
 Br1578  Br    -0.457620     -0.198477     -0.457620 
 Br1579  Br    -0.292380     -0.292380     -0.448477 
 Br1580  Br    -0.301523     -0.042380     -0.457620 
 Br1581  Br    -0.448477     -0.292380     -0.292380 
 Br1582  Br    -0.301523     -0.457620     -0.042380 
 Br1583  Br    -0.198477     -0.457620     -0.457620 
 N1584  N    -0.092011     -0.264753     -0.045497 
 N1585  N    -0.157989     -0.204503     -0.014753 
 N1586  N    -0.092011     -0.235247     -0.454503 
 N1587  N    -0.157989     -0.295497     -0.485247 
 N1588  N    -0.157989     -0.485247     -0.295497 
 N1589  N    -0.092011     -0.454503     -0.235247 
 N1590  N    -0.157989     -0.014753     -0.204503 
 N1591  N    -0.092011     -0.045497     -0.264753 
 N1592  N    -0.485247     -0.295497     -0.157989 
 N1593  N    -0.264753     -0.092011     -0.045497 
 N1594  N    -0.235247     -0.454503     -0.092011 
 N1595  N    -0.014753     -0.157989     -0.204503 
 N1596  N    -0.014753     -0.204503     -0.157989 
 N1597  N    -0.235247     -0.092011     -0.454503 
 N1598  N    -0.264753     -0.045497     -0.092011 
 N1599  N    -0.485247     -0.157989     -0.295497 
 N1600  N    -0.204503     -0.157989     -0.014753 
 N1601  N    -0.045497     -0.092011     -0.264753 
 N1602  N    -0.454503     -0.235247     -0.092011 
 N1603  N    -0.295497     -0.157989     -0.485247 
 N1604  N    -0.204503     -0.014753     -0.157989 
 N1605  N    -0.454503     -0.092011     -0.235247 
 N1606  N    -0.045497     -0.264753     -0.092011 
 N1607  N    -0.295497     -0.485247     -0.157989 
 N1608  N    -0.342011     -0.014753     -0.295497 
 N1609  N    -0.407989     -0.454503     -0.264753 
 N1610  N    -0.342011     -0.485247     -0.204503 
 N1611  N    -0.407989     -0.045497     -0.235247 
 N1612  N    -0.407989     -0.235247     -0.045497 
 N1613  N    -0.342011     -0.204503     -0.485247 
 N1614  N    -0.407989     -0.264753     -0.454503 
 N1615  N    -0.342011     -0.295497     -0.014753 
 N1616  N    -0.235247     -0.045497     -0.407989 
 N1617  N    -0.014753     -0.342011     -0.295497 
 N1618  N    -0.485247     -0.204503     -0.342011 
 N1619  N    -0.264753     -0.407989     -0.454503 
 N1620  N    -0.264753     -0.454503     -0.407989 
 N1621  N    -0.485247     -0.342011     -0.204503 
 N1622  N    -0.014753     -0.295497     -0.342011 
 N1623  N    -0.235247     -0.407989     -0.045497 
 N1624  N    -0.454503     -0.407989     -0.264753 
 N1625  N    -0.295497     -0.342011     -0.014753 
 N1626  N    -0.204503     -0.485247     -0.342011 
 N1627  N    -0.045497     -0.407989     -0.235247 
 N1628  N    -0.454503     -0.264753     -0.407989 
 N1629  N    -0.204503     -0.342011     -0.485247 
 N1630  N    -0.295497     -0.014753     -0.342011 
 N1631  N    -0.045497     -0.235247     -0.407989 
loop_  
_geom_bond_atom_site_label_1  
_geom_bond_atom_site_label_2  
Zn0   N972 
Zn0   N973 
Zn0   N158 
Zn0   N159 
Zn1   N160 
Zn1   N161 
Zn1   N570 
Zn1   N571 
Zn2   N164 
Zn2   N372 
Zn2   N174 
Zn2   N382 
Zn3   N981 
Zn3   N169 
Zn3   N988 
Zn3   N175 
Zn4   N166 
Zn4   N578 
Zn4   N584 
Zn4   N179 
Zn5   N371 
Zn5   N171 
Zn5   N377 
Zn5   N177 
Zn6   N588 
Zn6   N181 
Zn6   N182 
Zn6   N591 
Zn7   N1000 
Zn7   N185 
Zn7   N186 
Zn7   N1003 
Zn8   N596 
Zn8   N192 
Zn8   N198 
Zn8   N610 
Zn9   N393 
Zn9   N193 
Zn9   N196 
Zn9   N403 
Zn10   N190 
Zn10   N398 
Zn10   N200 
Zn10   N407 
Zn11   N191 
Zn11   N1011 
Zn11   N1013 
Zn11   N201 
H12   C72 
H13   C73 
H14   C74 
H15   C75 
H16   C76 
H17   C77 
H18   C78 
H19   C79 
H20   C80 
H21   C81 
H22   C82 
H23   C83 
H24   C84 
H25   C85 
H26   C86 
H27   C87 
H28   C88 
H29   C89 
H30   C90 
H31   C91 
H32   C92 
H33   C93 
H34   C94 
H35   C95 
H36   C108 
H37   C109 
H38   C110 
H39   C111 
H40   C112 
H41   C113 
H42   C114 
H43   C115 
H44   C116 
H45   C117 
H46   C118 
H47   C119 
H48   C120 
H49   C121 
H50   C122 
H51   C123 
H52   C124 
H53   C125 
H54   C126 
H55   C127 
H56   C128 
H57   C129 
H58   C130 
H59   C131 
C60   Br132 
C60   N156 
C60   N178 
C61   Br133 
C61   N973 
C61   N988 
C62   Br134 
C62   N587 
C62   N590 
C63   Br135 
C63   N975 
C63   N1017 
C64   Br136 
C64   N568 
C64   N606 
C65   Br137 
C65   N991 
C65   N1001 
C66   Br138 
C66   N570 
C66   N584 
C67   Br139 
C67   N163 
C67   N173 
C68   Br140 
C68   N368 
C68   N397 
C69   Br141 
C69   N165 
C69   N170 
C70   Br142 
C70   N375 
C70   N394 
C71   Br143 
C71   N371 
C71   N372 
C72   C94 
C72   N156 
C73   C88 
C73   N157 
C74   C131 
C74   N158 
C75   C129 
C75   N159 
C76   C126 
C76   N160 
C77   C127 
C77   N161 
C78   C92 
C78   N162 
C79   C89 
C79   N163 
C80   C121 
C80   N164 
C81   C86 
C81   N165 
C82   C123 
C82   N166 
C83   C84 
C83   N167 
C84   N168 
C85   C116 
C85   N169 
C86   N170 
C87   C118 
C87   N171 
C88   N172 
C89   N173 
C90   C112 
C90   N174 
C91   C113 
C91   N175 
C92   N176 
C93   C111 
C93   N177 
C94   N178 
C95   C110 
C95   N179 
C96   Br144 
C96   N588 
C96   N610 
C97   Br145 
C97   N181 
C97   N196 
C98   Br146 
C98   N158 
C98   N203 
C99   Br147 
C99   N177 
C99   N183 
C100   Br148 
C100   N174 
C100   N184 
C101   Br149 
C101   N161 
C101   N199 
C102   Br150 
C102   N186 
C102   N200 
C103   Br151 
C103   N1003 
C103   N1013 
C104   Br152 
C104   N169 
C104   N188 
C105   Br153 
C105   N393 
C105   N398 
C106   Br154 
C106   N166 
C106   N195 
C107   Br155 
C107   N191 
C107   N192 
C108   C130 
C108   N180 
C109   C124 
C109   N181 
C110   N182 
C111   N183 
C112   N184 
C113   N185 
C114   C128 
C114   N186 
C115   C125 
C115   N187 
C116   N188 
C117   C122 
C117   N189 
C118   N190 
C119   C120 
C119   N191 
C120   N192 
C121   N193 
C122   N194 
C123   N195 
C124   N196 
C125   N197 
C126   N198 
C127   N199 
C128   N200 
C129   N201 
C130   N202 
C131   N203 
N156   Zn816 
N157   Zn816 
N157   C877 
N159   C879 
N160   C472 
N162   Zn409 
N162   C474 
N163   Zn409 
N164   C272 
N165   Zn819 
N167   Zn209 
N167   C275 
N168   Zn206 
N168   C275 
N170   Zn412 
N171   C274 
N172   Zn819 
N172   C877 
N173   Zn209 
N175   C881 
N176   Zn412 
N176   C474 
N178   Zn206 
N179   C470 
N180   Zn414 
N180   C504 
N182   C470 
N183   Zn414 
N184   Zn823 
N185   C881 
N187   Zn823 
N187   C919 
N188   Zn416 
N189   Zn213 
N189   C309 
N190   C274 
N193   C272 
N194   Zn214 
N194   C309 
N195   Zn827 
N197   Zn827 
N197   C919 
N198   C472 
N199   Zn213 
N201   C879 
N202   Zn416 
N202   C504 
N203   Zn214 
Zn204   N1176 
Zn204   N1177 
Zn204   N362 
Zn204   N363 
Zn205   N364 
Zn205   N365 
Zn205   N774 
Zn205   N775 
Zn206   N368 
Zn206   N378 
Zn207   N1185 
Zn207   N373 
Zn207   N1192 
Zn207   N379 
Zn208   N370 
Zn208   N782 
Zn208   N788 
Zn208   N383 
Zn209   N375 
Zn209   N381 
Zn210   N792 
Zn210   N385 
Zn210   N386 
Zn210   N795 
Zn211   N1204 
Zn211   N389 
Zn211   N390 
Zn211   N1207 
Zn212   N800 
Zn212   N396 
Zn212   N402 
Zn212   N814 
Zn213   N397 
Zn213   N400 
Zn214   N394 
Zn214   N404 
Zn215   N395 
Zn215   N1215 
Zn215   N1217 
Zn215   N405 
H216   C276 
H217   C277 
H218   C278 
H219   C279 
H220   C280 
H221   C281 
H222   C282 
H223   C283 
H224   C284 
H225   C285 
H226   C286 
H227   C287 
H228   C288 
H229   C289 
H230   C290 
H231   C291 
H232   C292 
H233   C293 
H234   C294 
H235   C295 
H236   C296 
H237   C297 
H238   C298 
H239   C299 
H240   C312 
H241   C313 
H242   C314 
H243   C315 
H244   C316 
H245   C317 
H246   C318 
H247   C319 
H248   C320 
H249   C321 
H250   C322 
H251   C323 
H252   C324 
H253   C325 
H254   C326 
H255   C327 
H256   C328 
H257   C329 
H258   C330 
H259   C331 
H260   C332 
H261   C333 
H262   C334 
H263   C335 
C264   Br336 
C264   N360 
C264   N382 
C265   Br337 
C265   N1177 
C265   N1192 
C266   Br338 
C266   N791 
C266   N794 
C267   Br339 
C267   N1179 
C267   N1221 
C268   Br340 
C268   N772 
C268   N810 
C269   Br341 
C269   N1195 
C269   N1205 
C270   Br342 
C270   N774 
C270   N788 
C271   Br343 
C271   N367 
C271   N377 
C272   Br344 
C273   Br345 
C273   N369 
C273   N374 
C274   Br346 
C275   Br347 
C276   C298 
C276   N360 
C277   C292 
C277   N361 
C278   C335 
C278   N362 
C279   C333 
C279   N363 
C280   C330 
C280   N364 
C281   C331 
C281   N365 
C282   C296 
C282   N366 
C283   C293 
C283   N367 
C284   C325 
C284   N368 
C285   C290 
C285   N369 
C286   C327 
C286   N370 
C287   C288 
C287   N371 
C288   N372 
C289   C320 
C289   N373 
C290   N374 
C291   C322 
C291   N375 
C292   N376 
C293   N377 
C294   C316 
C294   N378 
C295   C317 
C295   N379 
C296   N380 
C297   C315 
C297   N381 
C298   N382 
C299   C314 
C299   N383 
C300   Br348 
C300   N792 
C300   N814 
C301   Br349 
C301   N385 
C301   N400 
C302   Br350 
C302   N362 
C302   N407 
C303   Br351 
C303   N381 
C303   N387 
C304   Br352 
C304   N378 
C304   N388 
C305   Br353 
C305   N365 
C305   N403 
C306   Br354 
C306   N390 
C306   N404 
C307   Br355 
C307   N1207 
C307   N1217 
C308   Br356 
C308   N373 
C308   N392 
C309   Br357 
C310   Br358 
C310   N370 
C310   N399 
C311   Br359 
C311   N395 
C311   N396 
C312   C334 
C312   N384 
C313   C328 
C313   N385 
C314   N386 
C315   N387 
C316   N388 
C317   N389 
C318   C332 
C318   N390 
C319   C329 
C319   N391 
C320   N392 
C321   C326 
C321   N393 
C322   N394 
C323   C324 
C323   N395 
C324   N396 
C325   N397 
C326   N398 
C327   N399 
C328   N400 
C329   N401 
C330   N402 
C331   N403 
C332   N404 
C333   N405 
C334   N406 
C335   N407 
N360   Zn1020 
N361   Zn1020 
N361   C1081 
N363   C1083 
N364   C676 
N366   Zn613 
N366   C678 
N367   Zn613 
N369   Zn1023 
N374   Zn616 
N376   Zn1023 
N376   C1081 
N379   C1085 
N380   Zn616 
N380   C678 
N383   C674 
N384   Zn618 
N384   C708 
N386   C674 
N387   Zn618 
N388   Zn1027 
N389   C1085 
N391   Zn1027 
N391   C1123 
N392   Zn620 
N399   Zn1031 
N401   Zn1031 
N401   C1123 
N402   C676 
N405   C1083 
N406   Zn620 
N406   C708 
Zn408   N1380 
Zn408   N1381 
Zn408   N566 
Zn408   N567 
Zn409   N568 
Zn409   N569 
Zn410   N572 
Zn410   N780 
Zn410   N582 
Zn410   N790 
Zn411   N1389 
Zn411   N577 
Zn411   N1396 
Zn411   N583 
Zn412   N574 
Zn412   N587 
Zn413   N779 
Zn413   N579 
Zn413   N785 
Zn413   N585 
Zn414   N589 
Zn414   N590 
Zn415   N1408 
Zn415   N593 
Zn415   N594 
Zn415   N1411 
Zn416   N600 
Zn416   N606 
Zn417   N801 
Zn417   N601 
Zn417   N604 
Zn417   N811 
Zn418   N598 
Zn418   N806 
Zn418   N608 
Zn418   N815 
Zn419   N599 
Zn419   N1419 
Zn419   N1421 
Zn419   N609 
H420   C480 
H421   C481 
H422   C482 
H423   C483 
H424   C484 
H425   C485 
H426   C486 
H427   C487 
H428   C488 
H429   C489 
H430   C490 
H431   C491 
H432   C492 
H433   C493 
H434   C494 
H435   C495 
H436   C496 
H437   C497 
H438   C498 
H439   C499 
H440   C500 
H441   C501 
H442   C502 
H443   C503 
H444   C516 
H445   C517 
H446   C518 
H447   C519 
H448   C520 
H449   C521 
H450   C522 
H451   C523 
H452   C524 
H453   C525 
H454   C526 
H455   C527 
H456   C528 
H457   C529 
H458   C530 
H459   C531 
H460   C532 
H461   C533 
H462   C534 
H463   C535 
H464   C536 
H465   C537 
H466   C538 
H467   C539 
C468   Br540 
C468   N564 
C468   N586 
C469   Br541 
C469   N1381 
C469   N1396 
C470   Br542 
C471   Br543 
C471   N1383 
C471   N1425 
C472   Br544 
C473   Br545 
C473   N1399 
C473   N1409 
C474   Br546 
C475   Br547 
C475   N571 
C475   N581 
C476   Br548 
C476   N776 
C476   N805 
C477   Br549 
C477   N573 
C477   N578 
C478   Br550 
C478   N783 
C478   N802 
C479   Br551 
C479   N779 
C479   N780 
C480   C502 
C480   N564 
C481   C496 
C481   N565 
C482   C539 
C482   N566 
C483   C537 
C483   N567 
C484   C534 
C484   N568 
C485   C535 
C485   N569 
C486   C500 
C486   N570 
C487   C497 
C487   N571 
C488   C529 
C488   N572 
C489   C494 
C489   N573 
C490   C531 
C490   N574 
C491   C492 
C491   N575 
C492   N576 
C493   C524 
C493   N577 
C494   N578 
C495   C526 
C495   N579 
C496   N580 
C497   N581 
C498   C520 
C498   N582 
C499   C521 
C499   N583 
C500   N584 
C501   C519 
C501   N585 
C502   N586 
C503   C518 
C503   N587 
C504   Br552 
C505   Br553 
C505   N589 
C505   N604 
C506   Br554 
C506   N566 
C506   N611 
C507   Br555 
C507   N585 
C507   N591 
C508   Br556 
C508   N582 
C508   N592 
C509   Br557 
C509   N569 
C509   N607 
C510   Br558 
C510   N594 
C510   N608 
C511   Br559 
C511   N1411 
C511   N1421 
C512   Br560 
C512   N577 
C512   N596 
C513   Br561 
C513   N801 
C513   N806 
C514   Br562 
C514   N574 
C514   N603 
C515   Br563 
C515   N599 
C515   N600 
C516   C538 
C516   N588 
C517   C532 
C517   N589 
C518   N590 
C519   N591 
C520   N592 
C521   N593 
C522   C536 
C522   N594 
C523   C533 
C523   N595 
C524   N596 
C525   C530 
C525   N597 
C526   N598 
C527   C528 
C527   N599 
C528   N600 
C529   N601 
C530   N602 
C531   N603 
C532   N604 
C533   N605 
C534   N606 
C535   N607 
C536   N608 
C537   N609 
C538   N610 
C539   N611 
N564   Zn1224 
N565   Zn1224 
N565   C1285 
N567   C1287 
N572   C680 
N573   Zn1227 
N575   Zn617 
N575   C683 
N576   Zn614 
N576   C683 
N579   C682 
N580   Zn1227 
N580   C1285 
N581   Zn617 
N583   C1289 
N586   Zn614 
N592   Zn1231 
N593   C1289 
N595   Zn1231 
N595   C1327 
N597   Zn621 
N597   C717 
N598   C682 
N601   C680 
N602   Zn622 
N602   C717 
N603   Zn1235 
N605   Zn1235 
N605   C1327 
N607   Zn621 
N609   C1287 
N611   Zn622 
Zn612   N1584 
Zn612   N1585 
Zn612   N770 
Zn612   N771 
Zn613   N772 
Zn613   N773 
Zn614   N776 
Zn614   N786 
Zn615   N1593 
Zn615   N781 
Zn615   N1600 
Zn615   N787 
Zn616   N778 
Zn616   N791 
Zn617   N783 
Zn617   N789 
Zn618   N793 
Zn618   N794 
Zn619   N1612 
Zn619   N797 
Zn619   N798 
Zn619   N1615 
Zn620   N804 
Zn620   N810 
Zn621   N805 
Zn621   N808 
Zn622   N802 
Zn622   N812 
Zn623   N803 
Zn623   N1623 
Zn623   N1625 
Zn623   N813 
H624   C684 
H625   C685 
H626   C686 
H627   C687 
H628   C688 
H629   C689 
H630   C690 
H631   C691 
H632   C692 
H633   C693 
H634   C694 
H635   C695 
H636   C696 
H637   C697 
H638   C698 
H639   C699 
H640   C700 
H641   C701 
H642   C702 
H643   C703 
H644   C704 
H645   C705 
H646   C706 
H647   C707 
H648   C720 
H649   C721 
H650   C722 
H651   C723 
H652   C724 
H653   C725 
H654   C726 
H655   C727 
H656   C728 
H657   C729 
H658   C730 
H659   C731 
H660   C732 
H661   C733 
H662   C734 
H663   C735 
H664   C736 
H665   C737 
H666   C738 
H667   C739 
H668   C740 
H669   C741 
H670   C742 
H671   C743 
C672   Br744 
C672   N768 
C672   N790 
C673   Br745 
C673   N1585 
C673   N1600 
C674   Br746 
C675   Br747 
C675   N1587 
C675   N1629 
C676   Br748 
C677   Br749 
C677   N1603 
C677   N1613 
C678   Br750 
C679   Br751 
C679   N775 
C679   N785 
C680   Br752 
C681   Br753 
C681   N777 
C681   N782 
C682   Br754 
C683   Br755 
C684   C706 
C684   N768 
C685   C700 
C685   N769 
C686   C743 
C686   N770 
C687   C741 
C687   N771 
C688   C738 
C688   N772 
C689   C739 
C689   N773 
C690   C704 
C690   N774 
C691   C701 
C691   N775 
C692   C733 
C692   N776 
C693   C698 
C693   N777 
C694   C735 
C694   N778 
C695   C696 
C695   N779 
C696   N780 
C697   C728 
C697   N781 
C698   N782 
C699   C730 
C699   N783 
C700   N784 
C701   N785 
C702   C724 
C702   N786 
C703   C725 
C703   N787 
C704   N788 
C705   C723 
C705   N789 
C706   N790 
C707   C722 
C707   N791 
C708   Br756 
C709   Br757 
C709   N793 
C709   N808 
C710   Br758 
C710   N770 
C710   N815 
C711   Br759 
C711   N789 
C711   N795 
C712   Br760 
C712   N786 
C712   N796 
C713   Br761 
C713   N773 
C713   N811 
C714   Br762 
C714   N798 
C714   N812 
C715   Br763 
C715   N1615 
C715   N1625 
C716   Br764 
C716   N781 
C716   N800 
C717   Br765 
C718   Br766 
C718   N778 
C718   N807 
C719   Br767 
C719   N803 
C719   N804 
C720   C742 
C720   N792 
C721   C736 
C721   N793 
C722   N794 
C723   N795 
C724   N796 
C725   N797 
C726   C740 
C726   N798 
C727   C737 
C727   N799 
C728   N800 
C729   C734 
C729   N801 
C730   N802 
C731   C732 
C731   N803 
C732   N804 
C733   N805 
C734   N806 
C735   N807 
C736   N808 
C737   N809 
C738   N810 
C739   N811 
C740   N812 
C741   N813 
C742   N814 
C743   N815 
N768   Zn1428 
N769   Zn1428 
N769   C1489 
N771   C1491 
N777   Zn1431 
N784   Zn1431 
N784   C1489 
N787   C1493 
N796   Zn1435 
N797   C1493 
N799   Zn1435 
N799   C1531 
N807   Zn1439 
N809   Zn1439 
N809   C1531 
N813   C1491 
Zn816   N974 
Zn816   N975 
Zn817   N976 
Zn817   N977 
Zn817   N1386 
Zn817   N1387 
Zn818   N980 
Zn818   N1188 
Zn818   N990 
Zn818   N1198 
Zn819   N985 
Zn819   N991 
Zn820   N982 
Zn820   N1394 
Zn820   N1400 
Zn820   N995 
Zn821   N1187 
Zn821   N987 
Zn821   N1193 
Zn821   N993 
Zn822   N1404 
Zn822   N997 
Zn822   N998 
Zn822   N1407 
Zn823   N1001 
Zn823   N1002 
Zn824   N1412 
Zn824   N1008 
Zn824   N1014 
Zn824   N1426 
Zn825   N1209 
Zn825   N1009 
Zn825   N1012 
Zn825   N1219 
Zn826   N1006 
Zn826   N1214 
Zn826   N1016 
Zn826   N1223 
Zn827   N1007 
Zn827   N1017 
H828   C888 
H829   C889 
H830   C890 
H831   C891 
H832   C892 
H833   C893 
H834   C894 
H835   C895 
H836   C896 
H837   C897 
H838   C898 
H839   C899 
H840   C900 
H841   C901 
H842   C902 
H843   C903 
H844   C904 
H845   C905 
H846   C906 
H847   C907 
H848   C908 
H849   C909 
H850   C910 
H851   C911 
H852   C924 
H853   C925 
H854   C926 
H855   C927 
H856   C928 
H857   C929 
H858   C930 
H859   C931 
H860   C932 
H861   C933 
H862   C934 
H863   C935 
H864   C936 
H865   C937 
H866   C938 
H867   C939 
H868   C940 
H869   C941 
H870   C942 
H871   C943 
H872   C944 
H873   C945 
H874   C946 
H875   C947 
C876   Br948 
C876   N972 
C876   N994 
C877   Br949 
C878   Br950 
C878   N1403 
C878   N1406 
C879   Br951 
C880   Br952 
C880   N1384 
C880   N1422 
C881   Br953 
C882   Br954 
C882   N1386 
C882   N1400 
C883   Br955 
C883   N979 
C883   N989 
C884   Br956 
C884   N1184 
C884   N1213 
C885   Br957 
C885   N981 
C885   N986 
C886   Br958 
C886   N1191 
C886   N1210 
C887   Br959 
C887   N1187 
C887   N1188 
C888   C910 
C888   N972 
C889   C904 
C889   N973 
C890   C947 
C890   N974 
C891   C945 
C891   N975 
C892   C942 
C892   N976 
C893   C943 
C893   N977 
C894   C908 
C894   N978 
C895   C905 
C895   N979 
C896   C937 
C896   N980 
C897   C902 
C897   N981 
C898   C939 
C898   N982 
C899   C900 
C899   N983 
C900   N984 
C901   C932 
C901   N985 
C902   N986 
C903   C934 
C903   N987 
C904   N988 
C905   N989 
C906   C928 
C906   N990 
C907   C929 
C907   N991 
C908   N992 
C909   C927 
C909   N993 
C910   N994 
C911   C926 
C911   N995 
C912   Br960 
C912   N1404 
C912   N1426 
C913   Br961 
C913   N997 
C913   N1012 
C914   Br962 
C914   N974 
C914   N1019 
C915   Br963 
C915   N993 
C915   N999 
C916   Br964 
C916   N990 
C916   N1000 
C917   Br965 
C917   N977 
C917   N1015 
C918   Br966 
C918   N1002 
C918   N1016 
C919   Br967 
C920   Br968 
C920   N985 
C920   N1004 
C921   Br969 
C921   N1209 
C921   N1214 
C922   Br970 
C922   N982 
C922   N1011 
C923   Br971 
C923   N1007 
C923   N1008 
C924   C946 
C924   N996 
C925   C940 
C925   N997 
C926   N998 
C927   N999 
C928   N1000 
C929   N1001 
C930   C944 
C930   N1002 
C931   C941 
C931   N1003 
C932   N1004 
C933   C938 
C933   N1005 
C934   N1006 
C935   C936 
C935   N1007 
C936   N1008 
C937   N1009 
C938   N1010 
C939   N1011 
C940   N1012 
C941   N1013 
C942   N1014 
C943   N1015 
C944   N1016 
C945   N1017 
C946   N1018 
C947   N1019 
N976   C1288 
N978   Zn1225 
N978   C1290 
N979   Zn1225 
N980   C1088 
N983   Zn1025 
N983   C1091 
N984   Zn1022 
N984   C1091 
N986   Zn1228 
N987   C1090 
N989   Zn1025 
N992   Zn1228 
N992   C1290 
N994   Zn1022 
N995   C1286 
N996   Zn1230 
N996   C1320 
N998   C1286 
N999   Zn1230 
N1004   Zn1232 
N1005   Zn1029 
N1005   C1125 
N1006   C1090 
N1009   C1088 
N1010   Zn1030 
N1010   C1125 
N1014   C1288 
N1015   Zn1029 
N1018   Zn1232 
N1018   C1320 
N1019   Zn1030 
Zn1020   N1178 
Zn1020   N1179 
Zn1021   N1180 
Zn1021   N1181 
Zn1021   N1590 
Zn1021   N1591 
Zn1022   N1184 
Zn1022   N1194 
Zn1023   N1189 
Zn1023   N1195 
Zn1024   N1186 
Zn1024   N1598 
Zn1024   N1604 
Zn1024   N1199 
Zn1025   N1191 
Zn1025   N1197 
Zn1026   N1608 
Zn1026   N1201 
Zn1026   N1202 
Zn1026   N1611 
Zn1027   N1205 
Zn1027   N1206 
Zn1028   N1616 
Zn1028   N1212 
Zn1028   N1218 
Zn1028   N1630 
Zn1029   N1213 
Zn1029   N1216 
Zn1030   N1210 
Zn1030   N1220 
Zn1031   N1211 
Zn1031   N1221 
H1032   C1092 
H1033   C1093 
H1034   C1094 
H1035   C1095 
H1036   C1096 
H1037   C1097 
H1038   C1098 
H1039   C1099 
H1040   C1100 
H1041   C1101 
H1042   C1102 
H1043   C1103 
H1044   C1104 
H1045   C1105 
H1046   C1106 
H1047   C1107 
H1048   C1108 
H1049   C1109 
H1050   C1110 
H1051   C1111 
H1052   C1112 
H1053   C1113 
H1054   C1114 
H1055   C1115 
H1056   C1128 
H1057   C1129 
H1058   C1130 
H1059   C1131 
H1060   C1132 
H1061   C1133 
H1062   C1134 
H1063   C1135 
H1064   C1136 
H1065   C1137 
H1066   C1138 
H1067   C1139 
H1068   C1140 
H1069   C1141 
H1070   C1142 
H1071   C1143 
H1072   C1144 
H1073   C1145 
H1074   C1146 
H1075   C1147 
H1076   C1148 
H1077   C1149 
H1078   C1150 
H1079   C1151 
C1080   Br1152 
C1080   N1176 
C1080   N1198 
C1081   Br1153 
C1082   Br1154 
C1082   N1607 
C1082   N1610 
C1083   Br1155 
C1084   Br1156 
C1084   N1588 
C1084   N1626 
C1085   Br1157 
C1086   Br1158 
C1086   N1590 
C1086   N1604 
C1087   Br1159 
C1087   N1183 
C1087   N1193 
C1088   Br1160 
C1089   Br1161 
C1089   N1185 
C1089   N1190 
C1090   Br1162 
C1091   Br1163 
C1092   C1114 
C1092   N1176 
C1093   C1108 
C1093   N1177 
C1094   C1151 
C1094   N1178 
C1095   C1149 
C1095   N1179 
C1096   C1146 
C1096   N1180 
C1097   C1147 
C1097   N1181 
C1098   C1112 
C1098   N1182 
C1099   C1109 
C1099   N1183 
C1100   C1141 
C1100   N1184 
C1101   C1106 
C1101   N1185 
C1102   C1143 
C1102   N1186 
C1103   C1104 
C1103   N1187 
C1104   N1188 
C1105   C1136 
C1105   N1189 
C1106   N1190 
C1107   C1138 
C1107   N1191 
C1108   N1192 
C1109   N1193 
C1110   C1132 
C1110   N1194 
C1111   C1133 
C1111   N1195 
C1112   N1196 
C1113   C1131 
C1113   N1197 
C1114   N1198 
C1115   C1130 
C1115   N1199 
C1116   Br1164 
C1116   N1608 
C1116   N1630 
C1117   Br1165 
C1117   N1201 
C1117   N1216 
C1118   Br1166 
C1118   N1178 
C1118   N1223 
C1119   Br1167 
C1119   N1197 
C1119   N1203 
C1120   Br1168 
C1120   N1194 
C1120   N1204 
C1121   Br1169 
C1121   N1181 
C1121   N1219 
C1122   Br1170 
C1122   N1206 
C1122   N1220 
C1123   Br1171 
C1124   Br1172 
C1124   N1189 
C1124   N1208 
C1125   Br1173 
C1126   Br1174 
C1126   N1186 
C1126   N1215 
C1127   Br1175 
C1127   N1211 
C1127   N1212 
C1128   C1150 
C1128   N1200 
C1129   C1144 
C1129   N1201 
C1130   N1202 
C1131   N1203 
C1132   N1204 
C1133   N1205 
C1134   C1148 
C1134   N1206 
C1135   C1145 
C1135   N1207 
C1136   N1208 
C1137   C1142 
C1137   N1209 
C1138   N1210 
C1139   C1140 
C1139   N1211 
C1140   N1212 
C1141   N1213 
C1142   N1214 
C1143   N1215 
C1144   N1216 
C1145   N1217 
C1146   N1218 
C1147   N1219 
C1148   N1220 
C1149   N1221 
C1150   N1222 
C1151   N1223 
N1180   C1492 
N1182   Zn1429 
N1182   C1494 
N1183   Zn1429 
N1190   Zn1432 
N1196   Zn1432 
N1196   C1494 
N1199   C1490 
N1200   Zn1434 
N1200   C1524 
N1202   C1490 
N1203   Zn1434 
N1208   Zn1436 
N1218   C1492 
N1222   Zn1436 
N1222   C1524 
Zn1224   N1382 
Zn1224   N1383 
Zn1225   N1384 
Zn1225   N1385 
Zn1226   N1388 
Zn1226   N1596 
Zn1226   N1398 
Zn1226   N1606 
Zn1227   N1393 
Zn1227   N1399 
Zn1228   N1390 
Zn1228   N1403 
Zn1229   N1595 
Zn1229   N1395 
Zn1229   N1601 
Zn1229   N1401 
Zn1230   N1405 
Zn1230   N1406 
Zn1231   N1409 
Zn1231   N1410 
Zn1232   N1416 
Zn1232   N1422 
Zn1233   N1617 
Zn1233   N1417 
Zn1233   N1420 
Zn1233   N1627 
Zn1234   N1414 
Zn1234   N1622 
Zn1234   N1424 
Zn1234   N1631 
Zn1235   N1415 
Zn1235   N1425 
H1236   C1296 
H1237   C1297 
H1238   C1298 
H1239   C1299 
H1240   C1300 
H1241   C1301 
H1242   C1302 
H1243   C1303 
H1244   C1304 
H1245   C1305 
H1246   C1306 
H1247   C1307 
H1248   C1308 
H1249   C1309 
H1250   C1310 
H1251   C1311 
H1252   C1312 
H1253   C1313 
H1254   C1314 
H1255   C1315 
H1256   C1316 
H1257   C1317 
H1258   C1318 
H1259   C1319 
H1260   C1332 
H1261   C1333 
H1262   C1334 
H1263   C1335 
H1264   C1336 
H1265   C1337 
H1266   C1338 
H1267   C1339 
H1268   C1340 
H1269   C1341 
H1270   C1342 
H1271   C1343 
H1272   C1344 
H1273   C1345 
H1274   C1346 
H1275   C1347 
H1276   C1348 
H1277   C1349 
H1278   C1350 
H1279   C1351 
H1280   C1352 
H1281   C1353 
H1282   C1354 
H1283   C1355 
C1284   Br1356 
C1284   N1380 
C1284   N1402 
C1285   Br1357 
C1286   Br1358 
C1287   Br1359 
C1288   Br1360 
C1289   Br1361 
C1290   Br1362 
C1291   Br1363 
C1291   N1387 
C1291   N1397 
C1292   Br1364 
C1292   N1592 
C1292   N1621 
C1293   Br1365 
C1293   N1389 
C1293   N1394 
C1294   Br1366 
C1294   N1599 
C1294   N1618 
C1295   Br1367 
C1295   N1595 
C1295   N1596 
C1296   C1318 
C1296   N1380 
C1297   C1312 
C1297   N1381 
C1298   C1355 
C1298   N1382 
C1299   C1353 
C1299   N1383 
C1300   C1350 
C1300   N1384 
C1301   C1351 
C1301   N1385 
C1302   C1316 
C1302   N1386 
C1303   C1313 
C1303   N1387 
C1304   C1345 
C1304   N1388 
C1305   C1310 
C1305   N1389 
C1306   C1347 
C1306   N1390 
C1307   C1308 
C1307   N1391 
C1308   N1392 
C1309   C1340 
C1309   N1393 
C1310   N1394 
C1311   C1342 
C1311   N1395 
C1312   N1396 
C1313   N1397 
C1314   C1336 
C1314   N1398 
C1315   C1337 
C1315   N1399 
C1316   N1400 
C1317   C1335 
C1317   N1401 
C1318   N1402 
C1319   C1334 
C1319   N1403 
C1320   Br1368 
C1321   Br1369 
C1321   N1405 
C1321   N1420 
C1322   Br1370 
C1322   N1382 
C1322   N1427 
C1323   Br1371 
C1323   N1401 
C1323   N1407 
C1324   Br1372 
C1324   N1398 
C1324   N1408 
C1325   Br1373 
C1325   N1385 
C1325   N1423 
C1326   Br1374 
C1326   N1410 
C1326   N1424 
C1327   Br1375 
C1328   Br1376 
C1328   N1393 
C1328   N1412 
C1329   Br1377 
C1329   N1617 
C1329   N1622 
C1330   Br1378 
C1330   N1390 
C1330   N1419 
C1331   Br1379 
C1331   N1415 
C1331   N1416 
C1332   C1354 
C1332   N1404 
C1333   C1348 
C1333   N1405 
C1334   N1406 
C1335   N1407 
C1336   N1408 
C1337   N1409 
C1338   C1352 
C1338   N1410 
C1339   C1349 
C1339   N1411 
C1340   N1412 
C1341   C1346 
C1341   N1413 
C1342   N1414 
C1343   C1344 
C1343   N1415 
C1344   N1416 
C1345   N1417 
C1346   N1418 
C1347   N1419 
C1348   N1420 
C1349   N1421 
C1350   N1422 
C1351   N1423 
C1352   N1424 
C1353   N1425 
C1354   N1426 
C1355   N1427 
N1388   C1496 
N1391   Zn1433 
N1391   C1499 
N1392   Zn1430 
N1392   C1499 
N1395   C1498 
N1397   Zn1433 
N1402   Zn1430 
N1413   Zn1437 
N1413   C1533 
N1414   C1498 
N1417   C1496 
N1418   Zn1438 
N1418   C1533 
N1423   Zn1437 
N1427   Zn1438 
Zn1428   N1586 
Zn1428   N1587 
Zn1429   N1588 
Zn1429   N1589 
Zn1430   N1592 
Zn1430   N1602 
Zn1431   N1597 
Zn1431   N1603 
Zn1432   N1594 
Zn1432   N1607 
Zn1433   N1599 
Zn1433   N1605 
Zn1434   N1609 
Zn1434   N1610 
Zn1435   N1613 
Zn1435   N1614 
Zn1436   N1620 
Zn1436   N1626 
Zn1437   N1621 
Zn1437   N1624 
Zn1438   N1618 
Zn1438   N1628 
Zn1439   N1619 
Zn1439   N1629 
H1440   C1500 
H1441   C1501 
H1442   C1502 
H1443   C1503 
H1444   C1504 
H1445   C1505 
H1446   C1506 
H1447   C1507 
H1448   C1508 
H1449   C1509 
H1450   C1510 
H1451   C1511 
H1452   C1512 
H1453   C1513 
H1454   C1514 
H1455   C1515 
H1456   C1516 
H1457   C1517 
H1458   C1518 
H1459   C1519 
H1460   C1520 
H1461   C1521 
H1462   C1522 
H1463   C1523 
H1464   C1536 
H1465   C1537 
H1466   C1538 
H1467   C1539 
H1468   C1540 
H1469   C1541 
H1470   C1542 
H1471   C1543 
H1472   C1544 
H1473   C1545 
H1474   C1546 
H1475   C1547 
H1476   C1548 
H1477   C1549 
H1478   C1550 
H1479   C1551 
H1480   C1552 
H1481   C1553 
H1482   C1554 
H1483   C1555 
H1484   C1556 
H1485   C1557 
H1486   C1558 
H1487   C1559 
C1488   Br1560 
C1488   N1584 
C1488   N1606 
C1489   Br1561 
C1490   Br1562 
C1491   Br1563 
C1492   Br1564 
C1493   Br1565 
C1494   Br1566 
C1495   Br1567 
C1495   N1591 
C1495   N1601 
C1496   Br1568 
C1497   Br1569 
C1497   N1593 
C1497   N1598 
C1498   Br1570 
C1499   Br1571 
C1500   C1522 
C1500   N1584 
C1501   C1516 
C1501   N1585 
C1502   C1559 
C1502   N1586 
C1503   C1557 
C1503   N1587 
C1504   C1554 
C1504   N1588 
C1505   C1555 
C1505   N1589 
C1506   C1520 
C1506   N1590 
C1507   C1517 
C1507   N1591 
C1508   C1549 
C1508   N1592 
C1509   C1514 
C1509   N1593 
C1510   C1551 
C1510   N1594 
C1511   C1512 
C1511   N1595 
C1512   N1596 
C1513   C1544 
C1513   N1597 
C1514   N1598 
C1515   C1546 
C1515   N1599 
C1516   N1600 
C1517   N1601 
C1518   C1540 
C1518   N1602 
C1519   C1541 
C1519   N1603 
C1520   N1604 
C1521   C1539 
C1521   N1605 
C1522   N1606 
C1523   C1538 
C1523   N1607 
C1524   Br1572 
C1525   Br1573 
C1525   N1609 
C1525   N1624 
C1526   Br1574 
C1526   N1586 
C1526   N1631 
C1527   Br1575 
C1527   N1605 
C1527   N1611 
C1528   Br1576 
C1528   N1602 
C1528   N1612 
C1529   Br1577 
C1529   N1589 
C1529   N1627 
C1530   Br1578 
C1530   N1614 
C1530   N1628 
C1531   Br1579 
C1532   Br1580 
C1532   N1597 
C1532   N1616 
C1533   Br1581 
C1534   Br1582 
C1534   N1594 
C1534   N1623 
C1535   Br1583 
C1535   N1619 
C1535   N1620 
C1536   C1558 
C1536   N1608 
C1537   C1552 
C1537   N1609 
C1538   N1610 
C1539   N1611 
C1540   N1612 
C1541   N1613 
C1542   C1556 
C1542   N1614 
C1543   C1553 
C1543   N1615 
C1544   N1616 
C1545   C1550 
C1545   N1617 
C1546   N1618 
C1547   C1548 
C1547   N1619 
C1548   N1620 
C1549   N1621 
C1550   N1622 
C1551   N1623 
C1552   N1624 
C1553   N1625 
C1554   N1626 
C1555   N1627 
C1556   N1628 
C1557   N1629 
C1558   N1630 
C1559   N1631 
  
#END  
