data_ZIF8_Cl_222
_symmetry_cell_setting           triclinic 
_symmetry_space_group_name_H-M   'P 1' 
_symmetry_Int_Tables_number      1 
loop_ 
_symmetry_equiv_pos_site_id 
_symmetry_equiv_pos_as_xyz 
1 x,y,z 
_cell_length_a             34.403148        
_cell_length_b             34.403148        
_cell_length_c             34.403148        
_cell_angle_alpha          90.000000        
_cell_angle_beta           90.000000        
_cell_angle_gamma          90.000000        
loop_  
_atom_site_label   
_atom_site_type_symbol  
_atom_site_fract_x  
_atom_site_fract_y  
_atom_site_fract_z 
 Zn0  Zn     0.000000      0.250000      0.125000 
 Zn1  Zn     0.250000      0.125000      0.000000 
 Zn2  Zn     0.250000      0.000000      0.125000 
 Zn3  Zn     0.000000      0.125000      0.250000 
 Zn4  Zn     0.125000      0.250000      0.000000 
 Zn5  Zn     0.125000      0.000000      0.250000 
 Zn6  Zn     0.250000      0.000000      0.375000 
 Zn7  Zn     0.000000      0.375000      0.250000 
 Zn8  Zn     0.000000      0.250000      0.375000 
 Zn9  Zn     0.250000      0.375000      0.000000 
 Zn10  Zn     0.375000      0.000000      0.250000 
 Zn11  Zn     0.375000      0.250000      0.000000 
 H12  H     0.437716      0.319295      0.120230 
 H13  H     0.312284      0.129770      0.069295 
 H14  H     0.187716      0.430705      0.129770 
 H15  H     0.062284      0.120230      0.180705 
 H16  H     0.062284      0.180705      0.120230 
 H17  H     0.187716      0.129770      0.430705 
 H18  H     0.312284      0.069295      0.129770 
 H19  H     0.437716      0.120230      0.319295 
 H20  H     0.180705      0.120230      0.062284 
 H21  H     0.319295      0.437716      0.120230 
 H22  H     0.430705      0.129770      0.187716 
 H23  H     0.069295      0.312284      0.129770 
 H24  H     0.069295      0.129770      0.312284 
 H25  H     0.430705      0.187716      0.129770 
 H26  H     0.319295      0.120230      0.437716 
 H27  H     0.180705      0.062284      0.120230 
 H28  H     0.129770      0.312284      0.069295 
 H29  H     0.120230      0.437716      0.319295 
 H30  H     0.129770      0.430705      0.187716 
 H31  H     0.120230      0.062284      0.180705 
 H32  H     0.129770      0.069295      0.312284 
 H33  H     0.129770      0.187716      0.430705 
 H34  H     0.120230      0.319295      0.437716 
 H35  H     0.120230      0.180705      0.062284 
 H36  H     0.187716      0.069295      0.370230 
 H37  H     0.062284      0.379770      0.319295 
 H38  H     0.437716      0.180705      0.379770 
 H39  H     0.312284      0.370230      0.430705 
 H40  H     0.312284      0.430705      0.370230 
 H41  H     0.437716      0.379770      0.180705 
 H42  H     0.062284      0.319295      0.379770 
 H43  H     0.187716      0.370230      0.069295 
 H44  H     0.430705      0.370230      0.312284 
 H45  H     0.069295      0.187716      0.370230 
 H46  H     0.180705      0.379770      0.437716 
 H47  H     0.319295      0.062284      0.379770 
 H48  H     0.319295      0.379770      0.062284 
 H49  H     0.180705      0.437716      0.379770 
 H50  H     0.069295      0.370230      0.187716 
 H51  H     0.430705      0.312284      0.370230 
 H52  H     0.379770      0.062284      0.319295 
 H53  H     0.370230      0.187716      0.069295 
 H54  H     0.379770      0.180705      0.437716 
 H55  H     0.370230      0.312284      0.430705 
 H56  H     0.379770      0.319295      0.062284 
 H57  H     0.379770      0.437716      0.180705 
 H58  H     0.370230      0.069295      0.187716 
 H59  H     0.370230      0.430705      0.312284 
 C60  C     0.431649      0.298459      0.096923 
 C61  C     0.318351      0.153077      0.048459 
 C62  C     0.181649      0.451541      0.153077 
 C63  C     0.068351      0.096923      0.201541 
 C64  C     0.068351      0.201541      0.096923 
 C65  C     0.181649      0.153077      0.451541 
 C66  C     0.318351      0.048459      0.153077 
 C67  C     0.431649      0.096923      0.298459 
 C68  C     0.201541      0.096923      0.068351 
 C69  C     0.298459      0.431649      0.096923 
 C70  C     0.451541      0.153077      0.181649 
 C71  C     0.048459      0.318351      0.153077 
 C72  C     0.048459      0.153077      0.318351 
 C73  C     0.451541      0.181649      0.153077 
 C74  C     0.298459      0.096923      0.431649 
 C75  C     0.201541      0.068351      0.096923 
 C76  C     0.153077      0.318351      0.048459 
 C77  C     0.096923      0.431649      0.298459 
 C78  C     0.153077      0.451541      0.181649 
 C79  C     0.096923      0.068351      0.201541 
 C80  C     0.153077      0.048459      0.318351 
 C81  C     0.153077      0.181649      0.451541 
 C82  C     0.096923      0.298459      0.431649 
 C83  C     0.096923      0.201541      0.068351 
 C84  C     0.188803      0.496801      0.311197 
 C85  C     0.311197      0.188803      0.496801 
 C86  C     0.188803      0.003199      0.188803 
 C87  C     0.061197      0.061197      0.253199 
 C88  C     0.061197      0.253199      0.061197 
 C89  C     0.188803      0.188803      0.003199 
 C90  C     0.311197      0.496801      0.188803 
 C91  C     0.188803      0.311197      0.496801 
 C92  C     0.253199      0.061197      0.061197 
 C93  C     0.246801      0.438803      0.061197 
 C94  C     0.003199      0.188803      0.188803 
 C95  C     0.246801      0.061197      0.438803 
 C96  C     0.181649      0.048459      0.346923 
 C97  C     0.068351      0.403077      0.298459 
 C98  C     0.431649      0.201541      0.403077 
 C99  C     0.318351      0.346923      0.451541 
 C100  C     0.318351      0.451541      0.346923 
 C101  C     0.431649      0.403077      0.201541 
 C102  C     0.068351      0.298459      0.403077 
 C103  C     0.181649      0.346923      0.048459 
 C104  C     0.451541      0.346923      0.318351 
 C105  C     0.048459      0.181649      0.346923 
 C106  C     0.201541      0.403077      0.431649 
 C107  C     0.298459      0.068351      0.403077 
 C108  C     0.298459      0.403077      0.068351 
 C109  C     0.201541      0.431649      0.403077 
 C110  C     0.048459      0.346923      0.181649 
 C111  C     0.451541      0.318351      0.346923 
 C112  C     0.403077      0.068351      0.298459 
 C113  C     0.346923      0.181649      0.048459 
 C114  C     0.403077      0.201541      0.431649 
 C115  C     0.346923      0.318351      0.451541 
 C116  C     0.403077      0.298459      0.068351 
 C117  C     0.403077      0.431649      0.201541 
 C118  C     0.346923      0.048459      0.181649 
 C119  C     0.346923      0.451541      0.318351 
 C120  C     0.438803      0.246801      0.061197 
 C121  C     0.061197      0.438803      0.246801 
 C122  C     0.438803      0.253199      0.438803 
 C123  C     0.311197      0.311197      0.003199 
 C124  C     0.311197      0.003199      0.311197 
 C125  C     0.438803      0.438803      0.253199 
 C126  C     0.061197      0.246801      0.438803 
 C127  C     0.438803      0.061197      0.246801 
 C128  C     0.003199      0.311197      0.311197 
 C129  C     0.496801      0.188803      0.311197 
 C130  C     0.253199      0.438803      0.438803 
 C131  C     0.496801      0.311197      0.188803 
 N132  N     0.454379      0.265296      0.092257 
 N133  N     0.295621      0.157743      0.015296 
 N134  N     0.204379      0.484704      0.157743 
 N135  N     0.045621      0.092257      0.234704 
 N136  N     0.045621      0.234704      0.092257 
 N137  N     0.204379      0.157743      0.484704 
 N138  N     0.295621      0.015296      0.157743 
 N139  N     0.454379      0.092257      0.265296 
 N140  N     0.234704      0.092257      0.045621 
 N141  N     0.265296      0.454379      0.092257 
 N142  N     0.484704      0.157743      0.204379 
 N143  N     0.015296      0.295621      0.157743 
 N144  N     0.015296      0.157743      0.295621 
 N145  N     0.484704      0.204379      0.157743 
 N146  N     0.265296      0.092257      0.454379 
 N147  N     0.234704      0.045621      0.092257 
 N148  N     0.157743      0.295621      0.015296 
 N149  N     0.092257      0.454379      0.265296 
 N150  N     0.157743      0.484704      0.204379 
 N151  N     0.092257      0.045621      0.234704 
 N152  N     0.157743      0.015296      0.295621 
 N153  N     0.157743      0.204379      0.484704 
 N154  N     0.092257      0.265296      0.454379 
 N155  N     0.092257      0.234704      0.045621 
 N156  N     0.204379      0.015296      0.342257 
 N157  N     0.045621      0.407743      0.265296 
 N158  N     0.454379      0.234704      0.407743 
 N159  N     0.295621      0.342257      0.484704 
 N160  N     0.295621      0.484704      0.342257 
 N161  N     0.454379      0.407743      0.234704 
 N162  N     0.045621      0.265296      0.407743 
 N163  N     0.204379      0.342257      0.015296 
 N164  N     0.484704      0.342257      0.295621 
 N165  N     0.015296      0.204379      0.342257 
 N166  N     0.234704      0.407743      0.454379 
 N167  N     0.265296      0.045621      0.407743 
 N168  N     0.265296      0.407743      0.045621 
 N169  N     0.234704      0.454379      0.407743 
 N170  N     0.015296      0.342257      0.204379 
 N171  N     0.484704      0.295621      0.342257 
 N172  N     0.407743      0.045621      0.265296 
 N173  N     0.342257      0.204379      0.015296 
 N174  N     0.407743      0.234704      0.454379 
 N175  N     0.342257      0.295621      0.484704 
 N176  N     0.407743      0.265296      0.045621 
 N177  N     0.407743      0.454379      0.234704 
 N178  N     0.342257      0.015296      0.204379 
 N179  N     0.342257      0.484704      0.295621 
 Cl180  Cl     0.206988      0.453918      0.293012 
 Cl181  Cl     0.293012      0.206988      0.453918 
 Cl182  Cl     0.206988      0.046082      0.206988 
 Cl183  Cl     0.043012      0.043012      0.296082 
 Cl184  Cl     0.043012      0.296082      0.043012 
 Cl185  Cl     0.206988      0.206988      0.046082 
 Cl186  Cl     0.293012      0.453918      0.206988 
 Cl187  Cl     0.206988      0.293012      0.453918 
 Cl188  Cl     0.296082      0.043012      0.043012 
 Cl189  Cl     0.203918      0.456988      0.043012 
 Cl190  Cl     0.046082      0.206988      0.206988 
 Cl191  Cl     0.203918      0.043012      0.456988 
 Cl192  Cl     0.456988      0.203918      0.043012 
 Cl193  Cl     0.043012      0.456988      0.203918 
 Cl194  Cl     0.456988      0.296082      0.456988 
 Cl195  Cl     0.293012      0.293012      0.046082 
 Cl196  Cl     0.293012      0.046082      0.293012 
 Cl197  Cl     0.456988      0.456988      0.296082 
 Cl198  Cl     0.043012      0.203918      0.456988 
 Cl199  Cl     0.456988      0.043012      0.203918 
 Cl200  Cl     0.046082      0.293012      0.293012 
 Cl201  Cl     0.453918      0.206988      0.293012 
 Cl202  Cl     0.296082      0.456988      0.456988 
 Cl203  Cl     0.453918      0.293012      0.206988 
 Zn204  Zn     0.500000      0.250000      0.125000 
 Zn205  Zn    -0.250000      0.125000      0.000000 
 Zn206  Zn    -0.250000      0.000000      0.125000 
 Zn207  Zn     0.500000      0.125000      0.250000 
 Zn208  Zn    -0.375000      0.250000      0.000000 
 Zn209  Zn    -0.375000      0.000000      0.250000 
 Zn210  Zn    -0.250000      0.000000      0.375000 
 Zn211  Zn     0.500000      0.375000      0.250000 
 Zn212  Zn     0.500000      0.250000      0.375000 
 Zn213  Zn    -0.250000      0.375000      0.000000 
 Zn214  Zn    -0.125000      0.000000      0.250000 
 Zn215  Zn    -0.125000      0.250000      0.000000 
 H216  H    -0.062284      0.319295      0.120230 
 H217  H    -0.187716      0.129770      0.069295 
 H218  H    -0.312284      0.430705      0.129770 
 H219  H    -0.437716      0.120230      0.180705 
 H220  H    -0.437716      0.180705      0.120230 
 H221  H    -0.312284      0.129770      0.430705 
 H222  H    -0.187716      0.069295      0.129770 
 H223  H    -0.062284      0.120230      0.319295 
 H224  H    -0.319295      0.120230      0.062284 
 H225  H    -0.180705      0.437716      0.120230 
 H226  H    -0.069295      0.129770      0.187716 
 H227  H    -0.430705      0.312284      0.129770 
 H228  H    -0.430705      0.129770      0.312284 
 H229  H    -0.069295      0.187716      0.129770 
 H230  H    -0.180705      0.120230      0.437716 
 H231  H    -0.319295      0.062284      0.120230 
 H232  H    -0.370230      0.312284      0.069295 
 H233  H    -0.379770      0.437716      0.319295 
 H234  H    -0.370230      0.430705      0.187716 
 H235  H    -0.379770      0.062284      0.180705 
 H236  H    -0.370230      0.069295      0.312284 
 H237  H    -0.370230      0.187716      0.430705 
 H238  H    -0.379770      0.319295      0.437716 
 H239  H    -0.379770      0.180705      0.062284 
 H240  H    -0.312284      0.069295      0.370230 
 H241  H    -0.437716      0.379770      0.319295 
 H242  H    -0.062284      0.180705      0.379770 
 H243  H    -0.187716      0.370230      0.430705 
 H244  H    -0.187716      0.430705      0.370230 
 H245  H    -0.062284      0.379770      0.180705 
 H246  H    -0.437716      0.319295      0.379770 
 H247  H    -0.312284      0.370230      0.069295 
 H248  H    -0.069295      0.370230      0.312284 
 H249  H    -0.430705      0.187716      0.370230 
 H250  H    -0.319295      0.379770      0.437716 
 H251  H    -0.180705      0.062284      0.379770 
 H252  H    -0.180705      0.379770      0.062284 
 H253  H    -0.319295      0.437716      0.379770 
 H254  H    -0.430705      0.370230      0.187716 
 H255  H    -0.069295      0.312284      0.370230 
 H256  H    -0.120230      0.062284      0.319295 
 H257  H    -0.129770      0.187716      0.069295 
 H258  H    -0.120230      0.180705      0.437716 
 H259  H    -0.129770      0.312284      0.430705 
 H260  H    -0.120230      0.319295      0.062284 
 H261  H    -0.120230      0.437716      0.180705 
 H262  H    -0.129770      0.069295      0.187716 
 H263  H    -0.129770      0.430705      0.312284 
 C264  C    -0.068351      0.298459      0.096923 
 C265  C    -0.181649      0.153077      0.048459 
 C266  C    -0.318351      0.451541      0.153077 
 C267  C    -0.431649      0.096923      0.201541 
 C268  C    -0.431649      0.201541      0.096923 
 C269  C    -0.318351      0.153077      0.451541 
 C270  C    -0.181649      0.048459      0.153077 
 C271  C    -0.068351      0.096923      0.298459 
 C272  C    -0.298459      0.096923      0.068351 
 C273  C    -0.201541      0.431649      0.096923 
 C274  C    -0.048459      0.153077      0.181649 
 C275  C    -0.451541      0.318351      0.153077 
 C276  C    -0.451541      0.153077      0.318351 
 C277  C    -0.048459      0.181649      0.153077 
 C278  C    -0.201541      0.096923      0.431649 
 C279  C    -0.298459      0.068351      0.096923 
 C280  C    -0.346923      0.318351      0.048459 
 C281  C    -0.403077      0.431649      0.298459 
 C282  C    -0.346923      0.451541      0.181649 
 C283  C    -0.403077      0.068351      0.201541 
 C284  C    -0.346923      0.048459      0.318351 
 C285  C    -0.346923      0.181649      0.451541 
 C286  C    -0.403077      0.298459      0.431649 
 C287  C    -0.403077      0.201541      0.068351 
 C288  C    -0.311197      0.496801      0.311197 
 C289  C    -0.188803      0.188803      0.496801 
 C290  C    -0.311197      0.003199      0.188803 
 C291  C    -0.438803      0.061197      0.253199 
 C292  C    -0.438803      0.253199      0.061197 
 C293  C    -0.311197      0.188803      0.003199 
 C294  C    -0.188803      0.496801      0.188803 
 C295  C    -0.311197      0.311197      0.496801 
 C296  C    -0.246801      0.061197      0.061197 
 C297  C    -0.253199      0.438803      0.061197 
 C298  C    -0.496801      0.188803      0.188803 
 C299  C    -0.253199      0.061197      0.438803 
 C300  C    -0.318351      0.048459      0.346923 
 C301  C    -0.431649      0.403077      0.298459 
 C302  C    -0.068351      0.201541      0.403077 
 C303  C    -0.181649      0.346923      0.451541 
 C304  C    -0.181649      0.451541      0.346923 
 C305  C    -0.068351      0.403077      0.201541 
 C306  C    -0.431649      0.298459      0.403077 
 C307  C    -0.318351      0.346923      0.048459 
 C308  C    -0.048459      0.346923      0.318351 
 C309  C    -0.451541      0.181649      0.346923 
 C310  C    -0.298459      0.403077      0.431649 
 C311  C    -0.201541      0.068351      0.403077 
 C312  C    -0.201541      0.403077      0.068351 
 C313  C    -0.298459      0.431649      0.403077 
 C314  C    -0.451541      0.346923      0.181649 
 C315  C    -0.048459      0.318351      0.346923 
 C316  C    -0.096923      0.068351      0.298459 
 C317  C    -0.153077      0.181649      0.048459 
 C318  C    -0.096923      0.201541      0.431649 
 C319  C    -0.153077      0.318351      0.451541 
 C320  C    -0.096923      0.298459      0.068351 
 C321  C    -0.096923      0.431649      0.201541 
 C322  C    -0.153077      0.048459      0.181649 
 C323  C    -0.153077      0.451541      0.318351 
 C324  C    -0.061197      0.246801      0.061197 
 C325  C    -0.438803      0.438803      0.246801 
 C326  C    -0.061197      0.253199      0.438803 
 C327  C    -0.188803      0.311197      0.003199 
 C328  C    -0.188803      0.003199      0.311197 
 C329  C    -0.061197      0.438803      0.253199 
 C330  C    -0.438803      0.246801      0.438803 
 C331  C    -0.061197      0.061197      0.246801 
 C332  C    -0.496801      0.311197      0.311197 
 C333  C    -0.003199      0.188803      0.311197 
 C334  C    -0.246801      0.438803      0.438803 
 C335  C    -0.003199      0.311197      0.188803 
 N336  N    -0.045621      0.265296      0.092257 
 N337  N    -0.204379      0.157743      0.015296 
 N338  N    -0.295621      0.484704      0.157743 
 N339  N    -0.454379      0.092257      0.234704 
 N340  N    -0.454379      0.234704      0.092257 
 N341  N    -0.295621      0.157743      0.484704 
 N342  N    -0.204379      0.015296      0.157743 
 N343  N    -0.045621      0.092257      0.265296 
 N344  N    -0.265296      0.092257      0.045621 
 N345  N    -0.234704      0.454379      0.092257 
 N346  N    -0.015296      0.157743      0.204379 
 N347  N    -0.484704      0.295621      0.157743 
 N348  N    -0.484704      0.157743      0.295621 
 N349  N    -0.015296      0.204379      0.157743 
 N350  N    -0.234704      0.092257      0.454379 
 N351  N    -0.265296      0.045621      0.092257 
 N352  N    -0.342257      0.295621      0.015296 
 N353  N    -0.407743      0.454379      0.265296 
 N354  N    -0.342257      0.484704      0.204379 
 N355  N    -0.407743      0.045621      0.234704 
 N356  N    -0.342257      0.015296      0.295621 
 N357  N    -0.342257      0.204379      0.484704 
 N358  N    -0.407743      0.265296      0.454379 
 N359  N    -0.407743      0.234704      0.045621 
 N360  N    -0.295621      0.015296      0.342257 
 N361  N    -0.454379      0.407743      0.265296 
 N362  N    -0.045621      0.234704      0.407743 
 N363  N    -0.204379      0.342257      0.484704 
 N364  N    -0.204379      0.484704      0.342257 
 N365  N    -0.045621      0.407743      0.234704 
 N366  N    -0.454379      0.265296      0.407743 
 N367  N    -0.295621      0.342257      0.015296 
 N368  N    -0.015296      0.342257      0.295621 
 N369  N    -0.484704      0.204379      0.342257 
 N370  N    -0.265296      0.407743      0.454379 
 N371  N    -0.234704      0.045621      0.407743 
 N372  N    -0.234704      0.407743      0.045621 
 N373  N    -0.265296      0.454379      0.407743 
 N374  N    -0.484704      0.342257      0.204379 
 N375  N    -0.015296      0.295621      0.342257 
 N376  N    -0.092257      0.045621      0.265296 
 N377  N    -0.157743      0.204379      0.015296 
 N378  N    -0.092257      0.234704      0.454379 
 N379  N    -0.157743      0.295621      0.484704 
 N380  N    -0.092257      0.265296      0.045621 
 N381  N    -0.092257      0.454379      0.234704 
 N382  N    -0.157743      0.015296      0.204379 
 N383  N    -0.157743      0.484704      0.295621 
 Cl384  Cl    -0.293012      0.453918      0.293012 
 Cl385  Cl    -0.206988      0.206988      0.453918 
 Cl386  Cl    -0.293012      0.046082      0.206988 
 Cl387  Cl    -0.456988      0.043012      0.296082 
 Cl388  Cl    -0.456988      0.296082      0.043012 
 Cl389  Cl    -0.293012      0.206988      0.046082 
 Cl390  Cl    -0.206988      0.453918      0.206988 
 Cl391  Cl    -0.293012      0.293012      0.453918 
 Cl392  Cl    -0.203918      0.043012      0.043012 
 Cl393  Cl    -0.296082      0.456988      0.043012 
 Cl394  Cl    -0.453918      0.206988      0.206988 
 Cl395  Cl    -0.296082      0.043012      0.456988 
 Cl396  Cl    -0.043012      0.203918      0.043012 
 Cl397  Cl    -0.456988      0.456988      0.203918 
 Cl398  Cl    -0.043012      0.296082      0.456988 
 Cl399  Cl    -0.206988      0.293012      0.046082 
 Cl400  Cl    -0.206988      0.046082      0.293012 
 Cl401  Cl    -0.043012      0.456988      0.296082 
 Cl402  Cl    -0.456988      0.203918      0.456988 
 Cl403  Cl    -0.043012      0.043012      0.203918 
 Cl404  Cl    -0.453918      0.293012      0.293012 
 Cl405  Cl    -0.046082      0.206988      0.293012 
 Cl406  Cl    -0.203918      0.456988      0.456988 
 Cl407  Cl    -0.046082      0.293012      0.206988 
 Zn408  Zn     0.000000     -0.250000      0.125000 
 Zn409  Zn     0.250000     -0.375000      0.000000 
 Zn410  Zn     0.250000      0.500000      0.125000 
 Zn411  Zn     0.000000     -0.375000      0.250000 
 Zn412  Zn     0.125000     -0.250000      0.000000 
 Zn413  Zn     0.125000      0.500000      0.250000 
 Zn414  Zn     0.250000      0.500000      0.375000 
 Zn415  Zn     0.000000     -0.125000      0.250000 
 Zn416  Zn     0.000000     -0.250000      0.375000 
 Zn417  Zn     0.250000     -0.125000      0.000000 
 Zn418  Zn     0.375000      0.500000      0.250000 
 Zn419  Zn     0.375000     -0.250000      0.000000 
 H420  H     0.437716     -0.180705      0.120230 
 H421  H     0.312284     -0.370230      0.069295 
 H422  H     0.187716     -0.069295      0.129770 
 H423  H     0.062284     -0.379770      0.180705 
 H424  H     0.062284     -0.319295      0.120230 
 H425  H     0.187716     -0.370230      0.430705 
 H426  H     0.312284     -0.430705      0.129770 
 H427  H     0.437716     -0.379770      0.319295 
 H428  H     0.180705     -0.379770      0.062284 
 H429  H     0.319295     -0.062284      0.120230 
 H430  H     0.430705     -0.370230      0.187716 
 H431  H     0.069295     -0.187716      0.129770 
 H432  H     0.069295     -0.370230      0.312284 
 H433  H     0.430705     -0.312284      0.129770 
 H434  H     0.319295     -0.379770      0.437716 
 H435  H     0.180705     -0.437716      0.120230 
 H436  H     0.129770     -0.187716      0.069295 
 H437  H     0.120230     -0.062284      0.319295 
 H438  H     0.129770     -0.069295      0.187716 
 H439  H     0.120230     -0.437716      0.180705 
 H440  H     0.129770     -0.430705      0.312284 
 H441  H     0.129770     -0.312284      0.430705 
 H442  H     0.120230     -0.180705      0.437716 
 H443  H     0.120230     -0.319295      0.062284 
 H444  H     0.187716     -0.430705      0.370230 
 H445  H     0.062284     -0.120230      0.319295 
 H446  H     0.437716     -0.319295      0.379770 
 H447  H     0.312284     -0.129770      0.430705 
 H448  H     0.312284     -0.069295      0.370230 
 H449  H     0.437716     -0.120230      0.180705 
 H450  H     0.062284     -0.180705      0.379770 
 H451  H     0.187716     -0.129770      0.069295 
 H452  H     0.430705     -0.129770      0.312284 
 H453  H     0.069295     -0.312284      0.370230 
 H454  H     0.180705     -0.120230      0.437716 
 H455  H     0.319295     -0.437716      0.379770 
 H456  H     0.319295     -0.120230      0.062284 
 H457  H     0.180705     -0.062284      0.379770 
 H458  H     0.069295     -0.129770      0.187716 
 H459  H     0.430705     -0.187716      0.370230 
 H460  H     0.379770     -0.437716      0.319295 
 H461  H     0.370230     -0.312284      0.069295 
 H462  H     0.379770     -0.319295      0.437716 
 H463  H     0.370230     -0.187716      0.430705 
 H464  H     0.379770     -0.180705      0.062284 
 H465  H     0.379770     -0.062284      0.180705 
 H466  H     0.370230     -0.430705      0.187716 
 H467  H     0.370230     -0.069295      0.312284 
 C468  C     0.431649     -0.201541      0.096923 
 C469  C     0.318351     -0.346923      0.048459 
 C470  C     0.181649     -0.048459      0.153077 
 C471  C     0.068351     -0.403077      0.201541 
 C472  C     0.068351     -0.298459      0.096923 
 C473  C     0.181649     -0.346923      0.451541 
 C474  C     0.318351     -0.451541      0.153077 
 C475  C     0.431649     -0.403077      0.298459 
 C476  C     0.201541     -0.403077      0.068351 
 C477  C     0.298459     -0.068351      0.096923 
 C478  C     0.451541     -0.346923      0.181649 
 C479  C     0.048459     -0.181649      0.153077 
 C480  C     0.048459     -0.346923      0.318351 
 C481  C     0.451541     -0.318351      0.153077 
 C482  C     0.298459     -0.403077      0.431649 
 C483  C     0.201541     -0.431649      0.096923 
 C484  C     0.153077     -0.181649      0.048459 
 C485  C     0.096923     -0.068351      0.298459 
 C486  C     0.153077     -0.048459      0.181649 
 C487  C     0.096923     -0.431649      0.201541 
 C488  C     0.153077     -0.451541      0.318351 
 C489  C     0.153077     -0.318351      0.451541 
 C490  C     0.096923     -0.201541      0.431649 
 C491  C     0.096923     -0.298459      0.068351 
 C492  C     0.188803     -0.003199      0.311197 
 C493  C     0.311197     -0.311197      0.496801 
 C494  C     0.188803     -0.496801      0.188803 
 C495  C     0.061197     -0.438803      0.253199 
 C496  C     0.061197     -0.246801      0.061197 
 C497  C     0.188803     -0.311197      0.003199 
 C498  C     0.311197     -0.003199      0.188803 
 C499  C     0.188803     -0.188803      0.496801 
 C500  C     0.253199     -0.438803      0.061197 
 C501  C     0.246801     -0.061197      0.061197 
 C502  C     0.003199     -0.311197      0.188803 
 C503  C     0.246801     -0.438803      0.438803 
 C504  C     0.181649     -0.451541      0.346923 
 C505  C     0.068351     -0.096923      0.298459 
 C506  C     0.431649     -0.298459      0.403077 
 C507  C     0.318351     -0.153077      0.451541 
 C508  C     0.318351     -0.048459      0.346923 
 C509  C     0.431649     -0.096923      0.201541 
 C510  C     0.068351     -0.201541      0.403077 
 C511  C     0.181649     -0.153077      0.048459 
 C512  C     0.451541     -0.153077      0.318351 
 C513  C     0.048459     -0.318351      0.346923 
 C514  C     0.201541     -0.096923      0.431649 
 C515  C     0.298459     -0.431649      0.403077 
 C516  C     0.298459     -0.096923      0.068351 
 C517  C     0.201541     -0.068351      0.403077 
 C518  C     0.048459     -0.153077      0.181649 
 C519  C     0.451541     -0.181649      0.346923 
 C520  C     0.403077     -0.431649      0.298459 
 C521  C     0.346923     -0.318351      0.048459 
 C522  C     0.403077     -0.298459      0.431649 
 C523  C     0.346923     -0.181649      0.451541 
 C524  C     0.403077     -0.201541      0.068351 
 C525  C     0.403077     -0.068351      0.201541 
 C526  C     0.346923     -0.451541      0.181649 
 C527  C     0.346923     -0.048459      0.318351 
 C528  C     0.438803     -0.253199      0.061197 
 C529  C     0.061197     -0.061197      0.246801 
 C530  C     0.438803     -0.246801      0.438803 
 C531  C     0.311197     -0.188803      0.003199 
 C532  C     0.311197     -0.496801      0.311197 
 C533  C     0.438803     -0.061197      0.253199 
 C534  C     0.061197     -0.253199      0.438803 
 C535  C     0.438803     -0.438803      0.246801 
 C536  C     0.003199     -0.188803      0.311197 
 C537  C     0.496801     -0.311197      0.311197 
 C538  C     0.253199     -0.061197      0.438803 
 C539  C     0.496801     -0.188803      0.188803 
 N540  N     0.454379     -0.234704      0.092257 
 N541  N     0.295621     -0.342257      0.015296 
 N542  N     0.204379     -0.015296      0.157743 
 N543  N     0.045621     -0.407743      0.234704 
 N544  N     0.045621     -0.265296      0.092257 
 N545  N     0.204379     -0.342257      0.484704 
 N546  N     0.295621     -0.484704      0.157743 
 N547  N     0.454379     -0.407743      0.265296 
 N548  N     0.234704     -0.407743      0.045621 
 N549  N     0.265296     -0.045621      0.092257 
 N550  N     0.484704     -0.342257      0.204379 
 N551  N     0.015296     -0.204379      0.157743 
 N552  N     0.015296     -0.342257      0.295621 
 N553  N     0.484704     -0.295621      0.157743 
 N554  N     0.265296     -0.407743      0.454379 
 N555  N     0.234704     -0.454379      0.092257 
 N556  N     0.157743     -0.204379      0.015296 
 N557  N     0.092257     -0.045621      0.265296 
 N558  N     0.157743     -0.015296      0.204379 
 N559  N     0.092257     -0.454379      0.234704 
 N560  N     0.157743     -0.484704      0.295621 
 N561  N     0.157743     -0.295621      0.484704 
 N562  N     0.092257     -0.234704      0.454379 
 N563  N     0.092257     -0.265296      0.045621 
 N564  N     0.204379     -0.484704      0.342257 
 N565  N     0.045621     -0.092257      0.265296 
 N566  N     0.454379     -0.265296      0.407743 
 N567  N     0.295621     -0.157743      0.484704 
 N568  N     0.295621     -0.015296      0.342257 
 N569  N     0.454379     -0.092257      0.234704 
 N570  N     0.045621     -0.234704      0.407743 
 N571  N     0.204379     -0.157743      0.015296 
 N572  N     0.484704     -0.157743      0.295621 
 N573  N     0.015296     -0.295621      0.342257 
 N574  N     0.234704     -0.092257      0.454379 
 N575  N     0.265296     -0.454379      0.407743 
 N576  N     0.265296     -0.092257      0.045621 
 N577  N     0.234704     -0.045621      0.407743 
 N578  N     0.015296     -0.157743      0.204379 
 N579  N     0.484704     -0.204379      0.342257 
 N580  N     0.407743     -0.454379      0.265296 
 N581  N     0.342257     -0.295621      0.015296 
 N582  N     0.407743     -0.265296      0.454379 
 N583  N     0.342257     -0.204379      0.484704 
 N584  N     0.407743     -0.234704      0.045621 
 N585  N     0.407743     -0.045621      0.234704 
 N586  N     0.342257     -0.484704      0.204379 
 N587  N     0.342257     -0.015296      0.295621 
 Cl588  Cl     0.206988     -0.046082      0.293012 
 Cl589  Cl     0.293012     -0.293012      0.453918 
 Cl590  Cl     0.206988     -0.453918      0.206988 
 Cl591  Cl     0.043012     -0.456988      0.296082 
 Cl592  Cl     0.043012     -0.203918      0.043012 
 Cl593  Cl     0.206988     -0.293012      0.046082 
 Cl594  Cl     0.293012     -0.046082      0.206988 
 Cl595  Cl     0.206988     -0.206988      0.453918 
 Cl596  Cl     0.296082     -0.456988      0.043012 
 Cl597  Cl     0.203918     -0.043012      0.043012 
 Cl598  Cl     0.046082     -0.293012      0.206988 
 Cl599  Cl     0.203918     -0.456988      0.456988 
 Cl600  Cl     0.456988     -0.296082      0.043012 
 Cl601  Cl     0.043012     -0.043012      0.203918 
 Cl602  Cl     0.456988     -0.203918      0.456988 
 Cl603  Cl     0.293012     -0.206988      0.046082 
 Cl604  Cl     0.293012     -0.453918      0.293012 
 Cl605  Cl     0.456988     -0.043012      0.296082 
 Cl606  Cl     0.043012     -0.296082      0.456988 
 Cl607  Cl     0.456988     -0.456988      0.203918 
 Cl608  Cl     0.046082     -0.206988      0.293012 
 Cl609  Cl     0.453918     -0.293012      0.293012 
 Cl610  Cl     0.296082     -0.043012      0.456988 
 Cl611  Cl     0.453918     -0.206988      0.206988 
 Zn612  Zn     0.500000     -0.250000      0.125000 
 Zn613  Zn    -0.250000     -0.375000      0.000000 
 Zn614  Zn    -0.250000      0.500000      0.125000 
 Zn615  Zn     0.500000     -0.375000      0.250000 
 Zn616  Zn    -0.375000     -0.250000      0.000000 
 Zn617  Zn    -0.375000      0.500000      0.250000 
 Zn618  Zn    -0.250000      0.500000      0.375000 
 Zn619  Zn     0.500000     -0.125000      0.250000 
 Zn620  Zn     0.500000     -0.250000      0.375000 
 Zn621  Zn    -0.250000     -0.125000      0.000000 
 Zn622  Zn    -0.125000      0.500000      0.250000 
 Zn623  Zn    -0.125000     -0.250000      0.000000 
 H624  H    -0.062284     -0.180705      0.120230 
 H625  H    -0.187716     -0.370230      0.069295 
 H626  H    -0.312284     -0.069295      0.129770 
 H627  H    -0.437716     -0.379770      0.180705 
 H628  H    -0.437716     -0.319295      0.120230 
 H629  H    -0.312284     -0.370230      0.430705 
 H630  H    -0.187716     -0.430705      0.129770 
 H631  H    -0.062284     -0.379770      0.319295 
 H632  H    -0.319295     -0.379770      0.062284 
 H633  H    -0.180705     -0.062284      0.120230 
 H634  H    -0.069295     -0.370230      0.187716 
 H635  H    -0.430705     -0.187716      0.129770 
 H636  H    -0.430705     -0.370230      0.312284 
 H637  H    -0.069295     -0.312284      0.129770 
 H638  H    -0.180705     -0.379770      0.437716 
 H639  H    -0.319295     -0.437716      0.120230 
 H640  H    -0.370230     -0.187716      0.069295 
 H641  H    -0.379770     -0.062284      0.319295 
 H642  H    -0.370230     -0.069295      0.187716 
 H643  H    -0.379770     -0.437716      0.180705 
 H644  H    -0.370230     -0.430705      0.312284 
 H645  H    -0.370230     -0.312284      0.430705 
 H646  H    -0.379770     -0.180705      0.437716 
 H647  H    -0.379770     -0.319295      0.062284 
 H648  H    -0.312284     -0.430705      0.370230 
 H649  H    -0.437716     -0.120230      0.319295 
 H650  H    -0.062284     -0.319295      0.379770 
 H651  H    -0.187716     -0.129770      0.430705 
 H652  H    -0.187716     -0.069295      0.370230 
 H653  H    -0.062284     -0.120230      0.180705 
 H654  H    -0.437716     -0.180705      0.379770 
 H655  H    -0.312284     -0.129770      0.069295 
 H656  H    -0.069295     -0.129770      0.312284 
 H657  H    -0.430705     -0.312284      0.370230 
 H658  H    -0.319295     -0.120230      0.437716 
 H659  H    -0.180705     -0.437716      0.379770 
 H660  H    -0.180705     -0.120230      0.062284 
 H661  H    -0.319295     -0.062284      0.379770 
 H662  H    -0.430705     -0.129770      0.187716 
 H663  H    -0.069295     -0.187716      0.370230 
 H664  H    -0.120230     -0.437716      0.319295 
 H665  H    -0.129770     -0.312284      0.069295 
 H666  H    -0.120230     -0.319295      0.437716 
 H667  H    -0.129770     -0.187716      0.430705 
 H668  H    -0.120230     -0.180705      0.062284 
 H669  H    -0.120230     -0.062284      0.180705 
 H670  H    -0.129770     -0.430705      0.187716 
 H671  H    -0.129770     -0.069295      0.312284 
 C672  C    -0.068351     -0.201541      0.096923 
 C673  C    -0.181649     -0.346923      0.048459 
 C674  C    -0.318351     -0.048459      0.153077 
 C675  C    -0.431649     -0.403077      0.201541 
 C676  C    -0.431649     -0.298459      0.096923 
 C677  C    -0.318351     -0.346923      0.451541 
 C678  C    -0.181649     -0.451541      0.153077 
 C679  C    -0.068351     -0.403077      0.298459 
 C680  C    -0.298459     -0.403077      0.068351 
 C681  C    -0.201541     -0.068351      0.096923 
 C682  C    -0.048459     -0.346923      0.181649 
 C683  C    -0.451541     -0.181649      0.153077 
 C684  C    -0.451541     -0.346923      0.318351 
 C685  C    -0.048459     -0.318351      0.153077 
 C686  C    -0.201541     -0.403077      0.431649 
 C687  C    -0.298459     -0.431649      0.096923 
 C688  C    -0.346923     -0.181649      0.048459 
 C689  C    -0.403077     -0.068351      0.298459 
 C690  C    -0.346923     -0.048459      0.181649 
 C691  C    -0.403077     -0.431649      0.201541 
 C692  C    -0.346923     -0.451541      0.318351 
 C693  C    -0.346923     -0.318351      0.451541 
 C694  C    -0.403077     -0.201541      0.431649 
 C695  C    -0.403077     -0.298459      0.068351 
 C696  C    -0.311197     -0.003199      0.311197 
 C697  C    -0.188803     -0.311197      0.496801 
 C698  C    -0.311197     -0.496801      0.188803 
 C699  C    -0.438803     -0.438803      0.253199 
 C700  C    -0.438803     -0.246801      0.061197 
 C701  C    -0.311197     -0.311197      0.003199 
 C702  C    -0.188803     -0.003199      0.188803 
 C703  C    -0.311197     -0.188803      0.496801 
 C704  C    -0.246801     -0.438803      0.061197 
 C705  C    -0.253199     -0.061197      0.061197 
 C706  C    -0.496801     -0.311197      0.188803 
 C707  C    -0.253199     -0.438803      0.438803 
 C708  C    -0.318351     -0.451541      0.346923 
 C709  C    -0.431649     -0.096923      0.298459 
 C710  C    -0.068351     -0.298459      0.403077 
 C711  C    -0.181649     -0.153077      0.451541 
 C712  C    -0.181649     -0.048459      0.346923 
 C713  C    -0.068351     -0.096923      0.201541 
 C714  C    -0.431649     -0.201541      0.403077 
 C715  C    -0.318351     -0.153077      0.048459 
 C716  C    -0.048459     -0.153077      0.318351 
 C717  C    -0.451541     -0.318351      0.346923 
 C718  C    -0.298459     -0.096923      0.431649 
 C719  C    -0.201541     -0.431649      0.403077 
 C720  C    -0.201541     -0.096923      0.068351 
 C721  C    -0.298459     -0.068351      0.403077 
 C722  C    -0.451541     -0.153077      0.181649 
 C723  C    -0.048459     -0.181649      0.346923 
 C724  C    -0.096923     -0.431649      0.298459 
 C725  C    -0.153077     -0.318351      0.048459 
 C726  C    -0.096923     -0.298459      0.431649 
 C727  C    -0.153077     -0.181649      0.451541 
 C728  C    -0.096923     -0.201541      0.068351 
 C729  C    -0.096923     -0.068351      0.201541 
 C730  C    -0.153077     -0.451541      0.181649 
 C731  C    -0.153077     -0.048459      0.318351 
 C732  C    -0.061197     -0.253199      0.061197 
 C733  C    -0.438803     -0.061197      0.246801 
 C734  C    -0.061197     -0.246801      0.438803 
 C735  C    -0.188803     -0.188803      0.003199 
 C736  C    -0.188803     -0.496801      0.311197 
 C737  C    -0.061197     -0.061197      0.253199 
 C738  C    -0.438803     -0.253199      0.438803 
 C739  C    -0.061197     -0.438803      0.246801 
 C740  C    -0.496801     -0.188803      0.311197 
 C741  C    -0.003199     -0.311197      0.311197 
 C742  C    -0.246801     -0.061197      0.438803 
 C743  C    -0.003199     -0.188803      0.188803 
 N744  N    -0.045621     -0.234704      0.092257 
 N745  N    -0.204379     -0.342257      0.015296 
 N746  N    -0.295621     -0.015296      0.157743 
 N747  N    -0.454379     -0.407743      0.234704 
 N748  N    -0.454379     -0.265296      0.092257 
 N749  N    -0.295621     -0.342257      0.484704 
 N750  N    -0.204379     -0.484704      0.157743 
 N751  N    -0.045621     -0.407743      0.265296 
 N752  N    -0.265296     -0.407743      0.045621 
 N753  N    -0.234704     -0.045621      0.092257 
 N754  N    -0.015296     -0.342257      0.204379 
 N755  N    -0.484704     -0.204379      0.157743 
 N756  N    -0.484704     -0.342257      0.295621 
 N757  N    -0.015296     -0.295621      0.157743 
 N758  N    -0.234704     -0.407743      0.454379 
 N759  N    -0.265296     -0.454379      0.092257 
 N760  N    -0.342257     -0.204379      0.015296 
 N761  N    -0.407743     -0.045621      0.265296 
 N762  N    -0.342257     -0.015296      0.204379 
 N763  N    -0.407743     -0.454379      0.234704 
 N764  N    -0.342257     -0.484704      0.295621 
 N765  N    -0.342257     -0.295621      0.484704 
 N766  N    -0.407743     -0.234704      0.454379 
 N767  N    -0.407743     -0.265296      0.045621 
 N768  N    -0.295621     -0.484704      0.342257 
 N769  N    -0.454379     -0.092257      0.265296 
 N770  N    -0.045621     -0.265296      0.407743 
 N771  N    -0.204379     -0.157743      0.484704 
 N772  N    -0.204379     -0.015296      0.342257 
 N773  N    -0.045621     -0.092257      0.234704 
 N774  N    -0.454379     -0.234704      0.407743 
 N775  N    -0.295621     -0.157743      0.015296 
 N776  N    -0.015296     -0.157743      0.295621 
 N777  N    -0.484704     -0.295621      0.342257 
 N778  N    -0.265296     -0.092257      0.454379 
 N779  N    -0.234704     -0.454379      0.407743 
 N780  N    -0.234704     -0.092257      0.045621 
 N781  N    -0.265296     -0.045621      0.407743 
 N782  N    -0.484704     -0.157743      0.204379 
 N783  N    -0.015296     -0.204379      0.342257 
 N784  N    -0.092257     -0.454379      0.265296 
 N785  N    -0.157743     -0.295621      0.015296 
 N786  N    -0.092257     -0.265296      0.454379 
 N787  N    -0.157743     -0.204379      0.484704 
 N788  N    -0.092257     -0.234704      0.045621 
 N789  N    -0.092257     -0.045621      0.234704 
 N790  N    -0.157743     -0.484704      0.204379 
 N791  N    -0.157743     -0.015296      0.295621 
 Cl792  Cl    -0.293012     -0.046082      0.293012 
 Cl793  Cl    -0.206988     -0.293012      0.453918 
 Cl794  Cl    -0.293012     -0.453918      0.206988 
 Cl795  Cl    -0.456988     -0.456988      0.296082 
 Cl796  Cl    -0.456988     -0.203918      0.043012 
 Cl797  Cl    -0.293012     -0.293012      0.046082 
 Cl798  Cl    -0.206988     -0.046082      0.206988 
 Cl799  Cl    -0.293012     -0.206988      0.453918 
 Cl800  Cl    -0.203918     -0.456988      0.043012 
 Cl801  Cl    -0.296082     -0.043012      0.043012 
 Cl802  Cl    -0.453918     -0.293012      0.206988 
 Cl803  Cl    -0.296082     -0.456988      0.456988 
 Cl804  Cl    -0.043012     -0.296082      0.043012 
 Cl805  Cl    -0.456988     -0.043012      0.203918 
 Cl806  Cl    -0.043012     -0.203918      0.456988 
 Cl807  Cl    -0.206988     -0.206988      0.046082 
 Cl808  Cl    -0.206988     -0.453918      0.293012 
 Cl809  Cl    -0.043012     -0.043012      0.296082 
 Cl810  Cl    -0.456988     -0.296082      0.456988 
 Cl811  Cl    -0.043012     -0.456988      0.203918 
 Cl812  Cl    -0.453918     -0.206988      0.293012 
 Cl813  Cl    -0.046082     -0.293012      0.293012 
 Cl814  Cl    -0.203918     -0.043012      0.456988 
 Cl815  Cl    -0.046082     -0.206988      0.206988 
 Zn816  Zn     0.000000      0.250000     -0.375000 
 Zn817  Zn     0.250000      0.125000      0.500000 
 Zn818  Zn     0.250000      0.000000     -0.375000 
 Zn819  Zn     0.000000      0.125000     -0.250000 
 Zn820  Zn     0.125000      0.250000      0.500000 
 Zn821  Zn     0.125000      0.000000     -0.250000 
 Zn822  Zn     0.250000      0.000000     -0.125000 
 Zn823  Zn     0.000000      0.375000     -0.250000 
 Zn824  Zn     0.000000      0.250000     -0.125000 
 Zn825  Zn     0.250000      0.375000      0.500000 
 Zn826  Zn     0.375000      0.000000     -0.250000 
 Zn827  Zn     0.375000      0.250000      0.500000 
 H828  H     0.437716      0.319295     -0.379770 
 H829  H     0.312284      0.129770     -0.430705 
 H830  H     0.187716      0.430705     -0.370230 
 H831  H     0.062284      0.120230     -0.319295 
 H832  H     0.062284      0.180705     -0.379770 
 H833  H     0.187716      0.129770     -0.069295 
 H834  H     0.312284      0.069295     -0.370230 
 H835  H     0.437716      0.120230     -0.180705 
 H836  H     0.180705      0.120230     -0.437716 
 H837  H     0.319295      0.437716     -0.379770 
 H838  H     0.430705      0.129770     -0.312284 
 H839  H     0.069295      0.312284     -0.370230 
 H840  H     0.069295      0.129770     -0.187716 
 H841  H     0.430705      0.187716     -0.370230 
 H842  H     0.319295      0.120230     -0.062284 
 H843  H     0.180705      0.062284     -0.379770 
 H844  H     0.129770      0.312284     -0.430705 
 H845  H     0.120230      0.437716     -0.180705 
 H846  H     0.129770      0.430705     -0.312284 
 H847  H     0.120230      0.062284     -0.319295 
 H848  H     0.129770      0.069295     -0.187716 
 H849  H     0.129770      0.187716     -0.069295 
 H850  H     0.120230      0.319295     -0.062284 
 H851  H     0.120230      0.180705     -0.437716 
 H852  H     0.187716      0.069295     -0.129770 
 H853  H     0.062284      0.379770     -0.180705 
 H854  H     0.437716      0.180705     -0.120230 
 H855  H     0.312284      0.370230     -0.069295 
 H856  H     0.312284      0.430705     -0.129770 
 H857  H     0.437716      0.379770     -0.319295 
 H858  H     0.062284      0.319295     -0.120230 
 H859  H     0.187716      0.370230     -0.430705 
 H860  H     0.430705      0.370230     -0.187716 
 H861  H     0.069295      0.187716     -0.129770 
 H862  H     0.180705      0.379770     -0.062284 
 H863  H     0.319295      0.062284     -0.120230 
 H864  H     0.319295      0.379770     -0.437716 
 H865  H     0.180705      0.437716     -0.120230 
 H866  H     0.069295      0.370230     -0.312284 
 H867  H     0.430705      0.312284     -0.129770 
 H868  H     0.379770      0.062284     -0.180705 
 H869  H     0.370230      0.187716     -0.430705 
 H870  H     0.379770      0.180705     -0.062284 
 H871  H     0.370230      0.312284     -0.069295 
 H872  H     0.379770      0.319295     -0.437716 
 H873  H     0.379770      0.437716     -0.319295 
 H874  H     0.370230      0.069295     -0.312284 
 H875  H     0.370230      0.430705     -0.187716 
 C876  C     0.431649      0.298459     -0.403077 
 C877  C     0.318351      0.153077     -0.451541 
 C878  C     0.181649      0.451541     -0.346923 
 C879  C     0.068351      0.096923     -0.298459 
 C880  C     0.068351      0.201541     -0.403077 
 C881  C     0.181649      0.153077     -0.048459 
 C882  C     0.318351      0.048459     -0.346923 
 C883  C     0.431649      0.096923     -0.201541 
 C884  C     0.201541      0.096923     -0.431649 
 C885  C     0.298459      0.431649     -0.403077 
 C886  C     0.451541      0.153077     -0.318351 
 C887  C     0.048459      0.318351     -0.346923 
 C888  C     0.048459      0.153077     -0.181649 
 C889  C     0.451541      0.181649     -0.346923 
 C890  C     0.298459      0.096923     -0.068351 
 C891  C     0.201541      0.068351     -0.403077 
 C892  C     0.153077      0.318351     -0.451541 
 C893  C     0.096923      0.431649     -0.201541 
 C894  C     0.153077      0.451541     -0.318351 
 C895  C     0.096923      0.068351     -0.298459 
 C896  C     0.153077      0.048459     -0.181649 
 C897  C     0.153077      0.181649     -0.048459 
 C898  C     0.096923      0.298459     -0.068351 
 C899  C     0.096923      0.201541     -0.431649 
 C900  C     0.188803      0.496801     -0.188803 
 C901  C     0.311197      0.188803     -0.003199 
 C902  C     0.188803      0.003199     -0.311197 
 C903  C     0.061197      0.061197     -0.246801 
 C904  C     0.061197      0.253199     -0.438803 
 C905  C     0.188803      0.188803     -0.496801 
 C906  C     0.311197      0.496801     -0.311197 
 C907  C     0.188803      0.311197     -0.003199 
 C908  C     0.253199      0.061197     -0.438803 
 C909  C     0.246801      0.438803     -0.438803 
 C910  C     0.003199      0.188803     -0.311197 
 C911  C     0.246801      0.061197     -0.061197 
 C912  C     0.181649      0.048459     -0.153077 
 C913  C     0.068351      0.403077     -0.201541 
 C914  C     0.431649      0.201541     -0.096923 
 C915  C     0.318351      0.346923     -0.048459 
 C916  C     0.318351      0.451541     -0.153077 
 C917  C     0.431649      0.403077     -0.298459 
 C918  C     0.068351      0.298459     -0.096923 
 C919  C     0.181649      0.346923     -0.451541 
 C920  C     0.451541      0.346923     -0.181649 
 C921  C     0.048459      0.181649     -0.153077 
 C922  C     0.201541      0.403077     -0.068351 
 C923  C     0.298459      0.068351     -0.096923 
 C924  C     0.298459      0.403077     -0.431649 
 C925  C     0.201541      0.431649     -0.096923 
 C926  C     0.048459      0.346923     -0.318351 
 C927  C     0.451541      0.318351     -0.153077 
 C928  C     0.403077      0.068351     -0.201541 
 C929  C     0.346923      0.181649     -0.451541 
 C930  C     0.403077      0.201541     -0.068351 
 C931  C     0.346923      0.318351     -0.048459 
 C932  C     0.403077      0.298459     -0.431649 
 C933  C     0.403077      0.431649     -0.298459 
 C934  C     0.346923      0.048459     -0.318351 
 C935  C     0.346923      0.451541     -0.181649 
 C936  C     0.438803      0.246801     -0.438803 
 C937  C     0.061197      0.438803     -0.253199 
 C938  C     0.438803      0.253199     -0.061197 
 C939  C     0.311197      0.311197     -0.496801 
 C940  C     0.311197      0.003199     -0.188803 
 C941  C     0.438803      0.438803     -0.246801 
 C942  C     0.061197      0.246801     -0.061197 
 C943  C     0.438803      0.061197     -0.253199 
 C944  C     0.003199      0.311197     -0.188803 
 C945  C     0.496801      0.188803     -0.188803 
 C946  C     0.253199      0.438803     -0.061197 
 C947  C     0.496801      0.311197     -0.311197 
 N948  N     0.454379      0.265296     -0.407743 
 N949  N     0.295621      0.157743     -0.484704 
 N950  N     0.204379      0.484704     -0.342257 
 N951  N     0.045621      0.092257     -0.265296 
 N952  N     0.045621      0.234704     -0.407743 
 N953  N     0.204379      0.157743     -0.015296 
 N954  N     0.295621      0.015296     -0.342257 
 N955  N     0.454379      0.092257     -0.234704 
 N956  N     0.234704      0.092257     -0.454379 
 N957  N     0.265296      0.454379     -0.407743 
 N958  N     0.484704      0.157743     -0.295621 
 N959  N     0.015296      0.295621     -0.342257 
 N960  N     0.015296      0.157743     -0.204379 
 N961  N     0.484704      0.204379     -0.342257 
 N962  N     0.265296      0.092257     -0.045621 
 N963  N     0.234704      0.045621     -0.407743 
 N964  N     0.157743      0.295621     -0.484704 
 N965  N     0.092257      0.454379     -0.234704 
 N966  N     0.157743      0.484704     -0.295621 
 N967  N     0.092257      0.045621     -0.265296 
 N968  N     0.157743      0.015296     -0.204379 
 N969  N     0.157743      0.204379     -0.015296 
 N970  N     0.092257      0.265296     -0.045621 
 N971  N     0.092257      0.234704     -0.454379 
 N972  N     0.204379      0.015296     -0.157743 
 N973  N     0.045621      0.407743     -0.234704 
 N974  N     0.454379      0.234704     -0.092257 
 N975  N     0.295621      0.342257     -0.015296 
 N976  N     0.295621      0.484704     -0.157743 
 N977  N     0.454379      0.407743     -0.265296 
 N978  N     0.045621      0.265296     -0.092257 
 N979  N     0.204379      0.342257     -0.484704 
 N980  N     0.484704      0.342257     -0.204379 
 N981  N     0.015296      0.204379     -0.157743 
 N982  N     0.234704      0.407743     -0.045621 
 N983  N     0.265296      0.045621     -0.092257 
 N984  N     0.265296      0.407743     -0.454379 
 N985  N     0.234704      0.454379     -0.092257 
 N986  N     0.015296      0.342257     -0.295621 
 N987  N     0.484704      0.295621     -0.157743 
 N988  N     0.407743      0.045621     -0.234704 
 N989  N     0.342257      0.204379     -0.484704 
 N990  N     0.407743      0.234704     -0.045621 
 N991  N     0.342257      0.295621     -0.015296 
 N992  N     0.407743      0.265296     -0.454379 
 N993  N     0.407743      0.454379     -0.265296 
 N994  N     0.342257      0.015296     -0.295621 
 N995  N     0.342257      0.484704     -0.204379 
 Cl996  Cl     0.206988      0.453918     -0.206988 
 Cl997  Cl     0.293012      0.206988     -0.046082 
 Cl998  Cl     0.206988      0.046082     -0.293012 
 Cl999  Cl     0.043012      0.043012     -0.203918 
 Cl1000  Cl     0.043012      0.296082     -0.456988 
 Cl1001  Cl     0.206988      0.206988     -0.453918 
 Cl1002  Cl     0.293012      0.453918     -0.293012 
 Cl1003  Cl     0.206988      0.293012     -0.046082 
 Cl1004  Cl     0.296082      0.043012     -0.456988 
 Cl1005  Cl     0.203918      0.456988     -0.456988 
 Cl1006  Cl     0.046082      0.206988     -0.293012 
 Cl1007  Cl     0.203918      0.043012     -0.043012 
 Cl1008  Cl     0.456988      0.203918     -0.456988 
 Cl1009  Cl     0.043012      0.456988     -0.296082 
 Cl1010  Cl     0.456988      0.296082     -0.043012 
 Cl1011  Cl     0.293012      0.293012     -0.453918 
 Cl1012  Cl     0.293012      0.046082     -0.206988 
 Cl1013  Cl     0.456988      0.456988     -0.203918 
 Cl1014  Cl     0.043012      0.203918     -0.043012 
 Cl1015  Cl     0.456988      0.043012     -0.296082 
 Cl1016  Cl     0.046082      0.293012     -0.206988 
 Cl1017  Cl     0.453918      0.206988     -0.206988 
 Cl1018  Cl     0.296082      0.456988     -0.043012 
 Cl1019  Cl     0.453918      0.293012     -0.293012 
 Zn1020  Zn     0.500000      0.250000     -0.375000 
 Zn1021  Zn    -0.250000      0.125000      0.500000 
 Zn1022  Zn    -0.250000      0.000000     -0.375000 
 Zn1023  Zn     0.500000      0.125000     -0.250000 
 Zn1024  Zn    -0.375000      0.250000      0.500000 
 Zn1025  Zn    -0.375000      0.000000     -0.250000 
 Zn1026  Zn    -0.250000      0.000000     -0.125000 
 Zn1027  Zn     0.500000      0.375000     -0.250000 
 Zn1028  Zn     0.500000      0.250000     -0.125000 
 Zn1029  Zn    -0.250000      0.375000      0.500000 
 Zn1030  Zn    -0.125000      0.000000     -0.250000 
 Zn1031  Zn    -0.125000      0.250000      0.500000 
 H1032  H    -0.062284      0.319295     -0.379770 
 H1033  H    -0.187716      0.129770     -0.430705 
 H1034  H    -0.312284      0.430705     -0.370230 
 H1035  H    -0.437716      0.120230     -0.319295 
 H1036  H    -0.437716      0.180705     -0.379770 
 H1037  H    -0.312284      0.129770     -0.069295 
 H1038  H    -0.187716      0.069295     -0.370230 
 H1039  H    -0.062284      0.120230     -0.180705 
 H1040  H    -0.319295      0.120230     -0.437716 
 H1041  H    -0.180705      0.437716     -0.379770 
 H1042  H    -0.069295      0.129770     -0.312284 
 H1043  H    -0.430705      0.312284     -0.370230 
 H1044  H    -0.430705      0.129770     -0.187716 
 H1045  H    -0.069295      0.187716     -0.370230 
 H1046  H    -0.180705      0.120230     -0.062284 
 H1047  H    -0.319295      0.062284     -0.379770 
 H1048  H    -0.370230      0.312284     -0.430705 
 H1049  H    -0.379770      0.437716     -0.180705 
 H1050  H    -0.370230      0.430705     -0.312284 
 H1051  H    -0.379770      0.062284     -0.319295 
 H1052  H    -0.370230      0.069295     -0.187716 
 H1053  H    -0.370230      0.187716     -0.069295 
 H1054  H    -0.379770      0.319295     -0.062284 
 H1055  H    -0.379770      0.180705     -0.437716 
 H1056  H    -0.312284      0.069295     -0.129770 
 H1057  H    -0.437716      0.379770     -0.180705 
 H1058  H    -0.062284      0.180705     -0.120230 
 H1059  H    -0.187716      0.370230     -0.069295 
 H1060  H    -0.187716      0.430705     -0.129770 
 H1061  H    -0.062284      0.379770     -0.319295 
 H1062  H    -0.437716      0.319295     -0.120230 
 H1063  H    -0.312284      0.370230     -0.430705 
 H1064  H    -0.069295      0.370230     -0.187716 
 H1065  H    -0.430705      0.187716     -0.129770 
 H1066  H    -0.319295      0.379770     -0.062284 
 H1067  H    -0.180705      0.062284     -0.120230 
 H1068  H    -0.180705      0.379770     -0.437716 
 H1069  H    -0.319295      0.437716     -0.120230 
 H1070  H    -0.430705      0.370230     -0.312284 
 H1071  H    -0.069295      0.312284     -0.129770 
 H1072  H    -0.120230      0.062284     -0.180705 
 H1073  H    -0.129770      0.187716     -0.430705 
 H1074  H    -0.120230      0.180705     -0.062284 
 H1075  H    -0.129770      0.312284     -0.069295 
 H1076  H    -0.120230      0.319295     -0.437716 
 H1077  H    -0.120230      0.437716     -0.319295 
 H1078  H    -0.129770      0.069295     -0.312284 
 H1079  H    -0.129770      0.430705     -0.187716 
 C1080  C    -0.068351      0.298459     -0.403077 
 C1081  C    -0.181649      0.153077     -0.451541 
 C1082  C    -0.318351      0.451541     -0.346923 
 C1083  C    -0.431649      0.096923     -0.298459 
 C1084  C    -0.431649      0.201541     -0.403077 
 C1085  C    -0.318351      0.153077     -0.048459 
 C1086  C    -0.181649      0.048459     -0.346923 
 C1087  C    -0.068351      0.096923     -0.201541 
 C1088  C    -0.298459      0.096923     -0.431649 
 C1089  C    -0.201541      0.431649     -0.403077 
 C1090  C    -0.048459      0.153077     -0.318351 
 C1091  C    -0.451541      0.318351     -0.346923 
 C1092  C    -0.451541      0.153077     -0.181649 
 C1093  C    -0.048459      0.181649     -0.346923 
 C1094  C    -0.201541      0.096923     -0.068351 
 C1095  C    -0.298459      0.068351     -0.403077 
 C1096  C    -0.346923      0.318351     -0.451541 
 C1097  C    -0.403077      0.431649     -0.201541 
 C1098  C    -0.346923      0.451541     -0.318351 
 C1099  C    -0.403077      0.068351     -0.298459 
 C1100  C    -0.346923      0.048459     -0.181649 
 C1101  C    -0.346923      0.181649     -0.048459 
 C1102  C    -0.403077      0.298459     -0.068351 
 C1103  C    -0.403077      0.201541     -0.431649 
 C1104  C    -0.311197      0.496801     -0.188803 
 C1105  C    -0.188803      0.188803     -0.003199 
 C1106  C    -0.311197      0.003199     -0.311197 
 C1107  C    -0.438803      0.061197     -0.246801 
 C1108  C    -0.438803      0.253199     -0.438803 
 C1109  C    -0.311197      0.188803     -0.496801 
 C1110  C    -0.188803      0.496801     -0.311197 
 C1111  C    -0.311197      0.311197     -0.003199 
 C1112  C    -0.246801      0.061197     -0.438803 
 C1113  C    -0.253199      0.438803     -0.438803 
 C1114  C    -0.496801      0.188803     -0.311197 
 C1115  C    -0.253199      0.061197     -0.061197 
 C1116  C    -0.318351      0.048459     -0.153077 
 C1117  C    -0.431649      0.403077     -0.201541 
 C1118  C    -0.068351      0.201541     -0.096923 
 C1119  C    -0.181649      0.346923     -0.048459 
 C1120  C    -0.181649      0.451541     -0.153077 
 C1121  C    -0.068351      0.403077     -0.298459 
 C1122  C    -0.431649      0.298459     -0.096923 
 C1123  C    -0.318351      0.346923     -0.451541 
 C1124  C    -0.048459      0.346923     -0.181649 
 C1125  C    -0.451541      0.181649     -0.153077 
 C1126  C    -0.298459      0.403077     -0.068351 
 C1127  C    -0.201541      0.068351     -0.096923 
 C1128  C    -0.201541      0.403077     -0.431649 
 C1129  C    -0.298459      0.431649     -0.096923 
 C1130  C    -0.451541      0.346923     -0.318351 
 C1131  C    -0.048459      0.318351     -0.153077 
 C1132  C    -0.096923      0.068351     -0.201541 
 C1133  C    -0.153077      0.181649     -0.451541 
 C1134  C    -0.096923      0.201541     -0.068351 
 C1135  C    -0.153077      0.318351     -0.048459 
 C1136  C    -0.096923      0.298459     -0.431649 
 C1137  C    -0.096923      0.431649     -0.298459 
 C1138  C    -0.153077      0.048459     -0.318351 
 C1139  C    -0.153077      0.451541     -0.181649 
 C1140  C    -0.061197      0.246801     -0.438803 
 C1141  C    -0.438803      0.438803     -0.253199 
 C1142  C    -0.061197      0.253199     -0.061197 
 C1143  C    -0.188803      0.311197     -0.496801 
 C1144  C    -0.188803      0.003199     -0.188803 
 C1145  C    -0.061197      0.438803     -0.246801 
 C1146  C    -0.438803      0.246801     -0.061197 
 C1147  C    -0.061197      0.061197     -0.253199 
 C1148  C    -0.496801      0.311197     -0.188803 
 C1149  C    -0.003199      0.188803     -0.188803 
 C1150  C    -0.246801      0.438803     -0.061197 
 C1151  C    -0.003199      0.311197     -0.311197 
 N1152  N    -0.045621      0.265296     -0.407743 
 N1153  N    -0.204379      0.157743     -0.484704 
 N1154  N    -0.295621      0.484704     -0.342257 
 N1155  N    -0.454379      0.092257     -0.265296 
 N1156  N    -0.454379      0.234704     -0.407743 
 N1157  N    -0.295621      0.157743     -0.015296 
 N1158  N    -0.204379      0.015296     -0.342257 
 N1159  N    -0.045621      0.092257     -0.234704 
 N1160  N    -0.265296      0.092257     -0.454379 
 N1161  N    -0.234704      0.454379     -0.407743 
 N1162  N    -0.015296      0.157743     -0.295621 
 N1163  N    -0.484704      0.295621     -0.342257 
 N1164  N    -0.484704      0.157743     -0.204379 
 N1165  N    -0.015296      0.204379     -0.342257 
 N1166  N    -0.234704      0.092257     -0.045621 
 N1167  N    -0.265296      0.045621     -0.407743 
 N1168  N    -0.342257      0.295621     -0.484704 
 N1169  N    -0.407743      0.454379     -0.234704 
 N1170  N    -0.342257      0.484704     -0.295621 
 N1171  N    -0.407743      0.045621     -0.265296 
 N1172  N    -0.342257      0.015296     -0.204379 
 N1173  N    -0.342257      0.204379     -0.015296 
 N1174  N    -0.407743      0.265296     -0.045621 
 N1175  N    -0.407743      0.234704     -0.454379 
 N1176  N    -0.295621      0.015296     -0.157743 
 N1177  N    -0.454379      0.407743     -0.234704 
 N1178  N    -0.045621      0.234704     -0.092257 
 N1179  N    -0.204379      0.342257     -0.015296 
 N1180  N    -0.204379      0.484704     -0.157743 
 N1181  N    -0.045621      0.407743     -0.265296 
 N1182  N    -0.454379      0.265296     -0.092257 
 N1183  N    -0.295621      0.342257     -0.484704 
 N1184  N    -0.015296      0.342257     -0.204379 
 N1185  N    -0.484704      0.204379     -0.157743 
 N1186  N    -0.265296      0.407743     -0.045621 
 N1187  N    -0.234704      0.045621     -0.092257 
 N1188  N    -0.234704      0.407743     -0.454379 
 N1189  N    -0.265296      0.454379     -0.092257 
 N1190  N    -0.484704      0.342257     -0.295621 
 N1191  N    -0.015296      0.295621     -0.157743 
 N1192  N    -0.092257      0.045621     -0.234704 
 N1193  N    -0.157743      0.204379     -0.484704 
 N1194  N    -0.092257      0.234704     -0.045621 
 N1195  N    -0.157743      0.295621     -0.015296 
 N1196  N    -0.092257      0.265296     -0.454379 
 N1197  N    -0.092257      0.454379     -0.265296 
 N1198  N    -0.157743      0.015296     -0.295621 
 N1199  N    -0.157743      0.484704     -0.204379 
 Cl1200  Cl    -0.293012      0.453918     -0.206988 
 Cl1201  Cl    -0.206988      0.206988     -0.046082 
 Cl1202  Cl    -0.293012      0.046082     -0.293012 
 Cl1203  Cl    -0.456988      0.043012     -0.203918 
 Cl1204  Cl    -0.456988      0.296082     -0.456988 
 Cl1205  Cl    -0.293012      0.206988     -0.453918 
 Cl1206  Cl    -0.206988      0.453918     -0.293012 
 Cl1207  Cl    -0.293012      0.293012     -0.046082 
 Cl1208  Cl    -0.203918      0.043012     -0.456988 
 Cl1209  Cl    -0.296082      0.456988     -0.456988 
 Cl1210  Cl    -0.453918      0.206988     -0.293012 
 Cl1211  Cl    -0.296082      0.043012     -0.043012 
 Cl1212  Cl    -0.043012      0.203918     -0.456988 
 Cl1213  Cl    -0.456988      0.456988     -0.296082 
 Cl1214  Cl    -0.043012      0.296082     -0.043012 
 Cl1215  Cl    -0.206988      0.293012     -0.453918 
 Cl1216  Cl    -0.206988      0.046082     -0.206988 
 Cl1217  Cl    -0.043012      0.456988     -0.203918 
 Cl1218  Cl    -0.456988      0.203918     -0.043012 
 Cl1219  Cl    -0.043012      0.043012     -0.296082 
 Cl1220  Cl    -0.453918      0.293012     -0.206988 
 Cl1221  Cl    -0.046082      0.206988     -0.206988 
 Cl1222  Cl    -0.203918      0.456988     -0.043012 
 Cl1223  Cl    -0.046082      0.293012     -0.293012 
 Zn1224  Zn     0.000000     -0.250000     -0.375000 
 Zn1225  Zn     0.250000     -0.375000      0.500000 
 Zn1226  Zn     0.250000      0.500000     -0.375000 
 Zn1227  Zn     0.000000     -0.375000     -0.250000 
 Zn1228  Zn     0.125000     -0.250000      0.500000 
 Zn1229  Zn     0.125000      0.500000     -0.250000 
 Zn1230  Zn     0.250000      0.500000     -0.125000 
 Zn1231  Zn     0.000000     -0.125000     -0.250000 
 Zn1232  Zn     0.000000     -0.250000     -0.125000 
 Zn1233  Zn     0.250000     -0.125000      0.500000 
 Zn1234  Zn     0.375000      0.500000     -0.250000 
 Zn1235  Zn     0.375000     -0.250000      0.500000 
 H1236  H     0.437716     -0.180705     -0.379770 
 H1237  H     0.312284     -0.370230     -0.430705 
 H1238  H     0.187716     -0.069295     -0.370230 
 H1239  H     0.062284     -0.379770     -0.319295 
 H1240  H     0.062284     -0.319295     -0.379770 
 H1241  H     0.187716     -0.370230     -0.069295 
 H1242  H     0.312284     -0.430705     -0.370230 
 H1243  H     0.437716     -0.379770     -0.180705 
 H1244  H     0.180705     -0.379770     -0.437716 
 H1245  H     0.319295     -0.062284     -0.379770 
 H1246  H     0.430705     -0.370230     -0.312284 
 H1247  H     0.069295     -0.187716     -0.370230 
 H1248  H     0.069295     -0.370230     -0.187716 
 H1249  H     0.430705     -0.312284     -0.370230 
 H1250  H     0.319295     -0.379770     -0.062284 
 H1251  H     0.180705     -0.437716     -0.379770 
 H1252  H     0.129770     -0.187716     -0.430705 
 H1253  H     0.120230     -0.062284     -0.180705 
 H1254  H     0.129770     -0.069295     -0.312284 
 H1255  H     0.120230     -0.437716     -0.319295 
 H1256  H     0.129770     -0.430705     -0.187716 
 H1257  H     0.129770     -0.312284     -0.069295 
 H1258  H     0.120230     -0.180705     -0.062284 
 H1259  H     0.120230     -0.319295     -0.437716 
 H1260  H     0.187716     -0.430705     -0.129770 
 H1261  H     0.062284     -0.120230     -0.180705 
 H1262  H     0.437716     -0.319295     -0.120230 
 H1263  H     0.312284     -0.129770     -0.069295 
 H1264  H     0.312284     -0.069295     -0.129770 
 H1265  H     0.437716     -0.120230     -0.319295 
 H1266  H     0.062284     -0.180705     -0.120230 
 H1267  H     0.187716     -0.129770     -0.430705 
 H1268  H     0.430705     -0.129770     -0.187716 
 H1269  H     0.069295     -0.312284     -0.129770 
 H1270  H     0.180705     -0.120230     -0.062284 
 H1271  H     0.319295     -0.437716     -0.120230 
 H1272  H     0.319295     -0.120230     -0.437716 
 H1273  H     0.180705     -0.062284     -0.120230 
 H1274  H     0.069295     -0.129770     -0.312284 
 H1275  H     0.430705     -0.187716     -0.129770 
 H1276  H     0.379770     -0.437716     -0.180705 
 H1277  H     0.370230     -0.312284     -0.430705 
 H1278  H     0.379770     -0.319295     -0.062284 
 H1279  H     0.370230     -0.187716     -0.069295 
 H1280  H     0.379770     -0.180705     -0.437716 
 H1281  H     0.379770     -0.062284     -0.319295 
 H1282  H     0.370230     -0.430705     -0.312284 
 H1283  H     0.370230     -0.069295     -0.187716 
 C1284  C     0.431649     -0.201541     -0.403077 
 C1285  C     0.318351     -0.346923     -0.451541 
 C1286  C     0.181649     -0.048459     -0.346923 
 C1287  C     0.068351     -0.403077     -0.298459 
 C1288  C     0.068351     -0.298459     -0.403077 
 C1289  C     0.181649     -0.346923     -0.048459 
 C1290  C     0.318351     -0.451541     -0.346923 
 C1291  C     0.431649     -0.403077     -0.201541 
 C1292  C     0.201541     -0.403077     -0.431649 
 C1293  C     0.298459     -0.068351     -0.403077 
 C1294  C     0.451541     -0.346923     -0.318351 
 C1295  C     0.048459     -0.181649     -0.346923 
 C1296  C     0.048459     -0.346923     -0.181649 
 C1297  C     0.451541     -0.318351     -0.346923 
 C1298  C     0.298459     -0.403077     -0.068351 
 C1299  C     0.201541     -0.431649     -0.403077 
 C1300  C     0.153077     -0.181649     -0.451541 
 C1301  C     0.096923     -0.068351     -0.201541 
 C1302  C     0.153077     -0.048459     -0.318351 
 C1303  C     0.096923     -0.431649     -0.298459 
 C1304  C     0.153077     -0.451541     -0.181649 
 C1305  C     0.153077     -0.318351     -0.048459 
 C1306  C     0.096923     -0.201541     -0.068351 
 C1307  C     0.096923     -0.298459     -0.431649 
 C1308  C     0.188803     -0.003199     -0.188803 
 C1309  C     0.311197     -0.311197     -0.003199 
 C1310  C     0.188803     -0.496801     -0.311197 
 C1311  C     0.061197     -0.438803     -0.246801 
 C1312  C     0.061197     -0.246801     -0.438803 
 C1313  C     0.188803     -0.311197     -0.496801 
 C1314  C     0.311197     -0.003199     -0.311197 
 C1315  C     0.188803     -0.188803     -0.003199 
 C1316  C     0.253199     -0.438803     -0.438803 
 C1317  C     0.246801     -0.061197     -0.438803 
 C1318  C     0.003199     -0.311197     -0.311197 
 C1319  C     0.246801     -0.438803     -0.061197 
 C1320  C     0.181649     -0.451541     -0.153077 
 C1321  C     0.068351     -0.096923     -0.201541 
 C1322  C     0.431649     -0.298459     -0.096923 
 C1323  C     0.318351     -0.153077     -0.048459 
 C1324  C     0.318351     -0.048459     -0.153077 
 C1325  C     0.431649     -0.096923     -0.298459 
 C1326  C     0.068351     -0.201541     -0.096923 
 C1327  C     0.181649     -0.153077     -0.451541 
 C1328  C     0.451541     -0.153077     -0.181649 
 C1329  C     0.048459     -0.318351     -0.153077 
 C1330  C     0.201541     -0.096923     -0.068351 
 C1331  C     0.298459     -0.431649     -0.096923 
 C1332  C     0.298459     -0.096923     -0.431649 
 C1333  C     0.201541     -0.068351     -0.096923 
 C1334  C     0.048459     -0.153077     -0.318351 
 C1335  C     0.451541     -0.181649     -0.153077 
 C1336  C     0.403077     -0.431649     -0.201541 
 C1337  C     0.346923     -0.318351     -0.451541 
 C1338  C     0.403077     -0.298459     -0.068351 
 C1339  C     0.346923     -0.181649     -0.048459 
 C1340  C     0.403077     -0.201541     -0.431649 
 C1341  C     0.403077     -0.068351     -0.298459 
 C1342  C     0.346923     -0.451541     -0.318351 
 C1343  C     0.346923     -0.048459     -0.181649 
 C1344  C     0.438803     -0.253199     -0.438803 
 C1345  C     0.061197     -0.061197     -0.253199 
 C1346  C     0.438803     -0.246801     -0.061197 
 C1347  C     0.311197     -0.188803     -0.496801 
 C1348  C     0.311197     -0.496801     -0.188803 
 C1349  C     0.438803     -0.061197     -0.246801 
 C1350  C     0.061197     -0.253199     -0.061197 
 C1351  C     0.438803     -0.438803     -0.253199 
 C1352  C     0.003199     -0.188803     -0.188803 
 C1353  C     0.496801     -0.311197     -0.188803 
 C1354  C     0.253199     -0.061197     -0.061197 
 C1355  C     0.496801     -0.188803     -0.311197 
 N1356  N     0.454379     -0.234704     -0.407743 
 N1357  N     0.295621     -0.342257     -0.484704 
 N1358  N     0.204379     -0.015296     -0.342257 
 N1359  N     0.045621     -0.407743     -0.265296 
 N1360  N     0.045621     -0.265296     -0.407743 
 N1361  N     0.204379     -0.342257     -0.015296 
 N1362  N     0.295621     -0.484704     -0.342257 
 N1363  N     0.454379     -0.407743     -0.234704 
 N1364  N     0.234704     -0.407743     -0.454379 
 N1365  N     0.265296     -0.045621     -0.407743 
 N1366  N     0.484704     -0.342257     -0.295621 
 N1367  N     0.015296     -0.204379     -0.342257 
 N1368  N     0.015296     -0.342257     -0.204379 
 N1369  N     0.484704     -0.295621     -0.342257 
 N1370  N     0.265296     -0.407743     -0.045621 
 N1371  N     0.234704     -0.454379     -0.407743 
 N1372  N     0.157743     -0.204379     -0.484704 
 N1373  N     0.092257     -0.045621     -0.234704 
 N1374  N     0.157743     -0.015296     -0.295621 
 N1375  N     0.092257     -0.454379     -0.265296 
 N1376  N     0.157743     -0.484704     -0.204379 
 N1377  N     0.157743     -0.295621     -0.015296 
 N1378  N     0.092257     -0.234704     -0.045621 
 N1379  N     0.092257     -0.265296     -0.454379 
 N1380  N     0.204379     -0.484704     -0.157743 
 N1381  N     0.045621     -0.092257     -0.234704 
 N1382  N     0.454379     -0.265296     -0.092257 
 N1383  N     0.295621     -0.157743     -0.015296 
 N1384  N     0.295621     -0.015296     -0.157743 
 N1385  N     0.454379     -0.092257     -0.265296 
 N1386  N     0.045621     -0.234704     -0.092257 
 N1387  N     0.204379     -0.157743     -0.484704 
 N1388  N     0.484704     -0.157743     -0.204379 
 N1389  N     0.015296     -0.295621     -0.157743 
 N1390  N     0.234704     -0.092257     -0.045621 
 N1391  N     0.265296     -0.454379     -0.092257 
 N1392  N     0.265296     -0.092257     -0.454379 
 N1393  N     0.234704     -0.045621     -0.092257 
 N1394  N     0.015296     -0.157743     -0.295621 
 N1395  N     0.484704     -0.204379     -0.157743 
 N1396  N     0.407743     -0.454379     -0.234704 
 N1397  N     0.342257     -0.295621     -0.484704 
 N1398  N     0.407743     -0.265296     -0.045621 
 N1399  N     0.342257     -0.204379     -0.015296 
 N1400  N     0.407743     -0.234704     -0.454379 
 N1401  N     0.407743     -0.045621     -0.265296 
 N1402  N     0.342257     -0.484704     -0.295621 
 N1403  N     0.342257     -0.015296     -0.204379 
 Cl1404  Cl     0.206988     -0.046082     -0.206988 
 Cl1405  Cl     0.293012     -0.293012     -0.046082 
 Cl1406  Cl     0.206988     -0.453918     -0.293012 
 Cl1407  Cl     0.043012     -0.456988     -0.203918 
 Cl1408  Cl     0.043012     -0.203918     -0.456988 
 Cl1409  Cl     0.206988     -0.293012     -0.453918 
 Cl1410  Cl     0.293012     -0.046082     -0.293012 
 Cl1411  Cl     0.206988     -0.206988     -0.046082 
 Cl1412  Cl     0.296082     -0.456988     -0.456988 
 Cl1413  Cl     0.203918     -0.043012     -0.456988 
 Cl1414  Cl     0.046082     -0.293012     -0.293012 
 Cl1415  Cl     0.203918     -0.456988     -0.043012 
 Cl1416  Cl     0.456988     -0.296082     -0.456988 
 Cl1417  Cl     0.043012     -0.043012     -0.296082 
 Cl1418  Cl     0.456988     -0.203918     -0.043012 
 Cl1419  Cl     0.293012     -0.206988     -0.453918 
 Cl1420  Cl     0.293012     -0.453918     -0.206988 
 Cl1421  Cl     0.456988     -0.043012     -0.203918 
 Cl1422  Cl     0.043012     -0.296082     -0.043012 
 Cl1423  Cl     0.456988     -0.456988     -0.296082 
 Cl1424  Cl     0.046082     -0.206988     -0.206988 
 Cl1425  Cl     0.453918     -0.293012     -0.206988 
 Cl1426  Cl     0.296082     -0.043012     -0.043012 
 Cl1427  Cl     0.453918     -0.206988     -0.293012 
 Zn1428  Zn     0.500000     -0.250000     -0.375000 
 Zn1429  Zn    -0.250000     -0.375000      0.500000 
 Zn1430  Zn    -0.250000      0.500000     -0.375000 
 Zn1431  Zn     0.500000     -0.375000     -0.250000 
 Zn1432  Zn    -0.375000     -0.250000      0.500000 
 Zn1433  Zn    -0.375000      0.500000     -0.250000 
 Zn1434  Zn    -0.250000      0.500000     -0.125000 
 Zn1435  Zn     0.500000     -0.125000     -0.250000 
 Zn1436  Zn     0.500000     -0.250000     -0.125000 
 Zn1437  Zn    -0.250000     -0.125000      0.500000 
 Zn1438  Zn    -0.125000      0.500000     -0.250000 
 Zn1439  Zn    -0.125000     -0.250000      0.500000 
 H1440  H    -0.062284     -0.180705     -0.379770 
 H1441  H    -0.187716     -0.370230     -0.430705 
 H1442  H    -0.312284     -0.069295     -0.370230 
 H1443  H    -0.437716     -0.379770     -0.319295 
 H1444  H    -0.437716     -0.319295     -0.379770 
 H1445  H    -0.312284     -0.370230     -0.069295 
 H1446  H    -0.187716     -0.430705     -0.370230 
 H1447  H    -0.062284     -0.379770     -0.180705 
 H1448  H    -0.319295     -0.379770     -0.437716 
 H1449  H    -0.180705     -0.062284     -0.379770 
 H1450  H    -0.069295     -0.370230     -0.312284 
 H1451  H    -0.430705     -0.187716     -0.370230 
 H1452  H    -0.430705     -0.370230     -0.187716 
 H1453  H    -0.069295     -0.312284     -0.370230 
 H1454  H    -0.180705     -0.379770     -0.062284 
 H1455  H    -0.319295     -0.437716     -0.379770 
 H1456  H    -0.370230     -0.187716     -0.430705 
 H1457  H    -0.379770     -0.062284     -0.180705 
 H1458  H    -0.370230     -0.069295     -0.312284 
 H1459  H    -0.379770     -0.437716     -0.319295 
 H1460  H    -0.370230     -0.430705     -0.187716 
 H1461  H    -0.370230     -0.312284     -0.069295 
 H1462  H    -0.379770     -0.180705     -0.062284 
 H1463  H    -0.379770     -0.319295     -0.437716 
 H1464  H    -0.312284     -0.430705     -0.129770 
 H1465  H    -0.437716     -0.120230     -0.180705 
 H1466  H    -0.062284     -0.319295     -0.120230 
 H1467  H    -0.187716     -0.129770     -0.069295 
 H1468  H    -0.187716     -0.069295     -0.129770 
 H1469  H    -0.062284     -0.120230     -0.319295 
 H1470  H    -0.437716     -0.180705     -0.120230 
 H1471  H    -0.312284     -0.129770     -0.430705 
 H1472  H    -0.069295     -0.129770     -0.187716 
 H1473  H    -0.430705     -0.312284     -0.129770 
 H1474  H    -0.319295     -0.120230     -0.062284 
 H1475  H    -0.180705     -0.437716     -0.120230 
 H1476  H    -0.180705     -0.120230     -0.437716 
 H1477  H    -0.319295     -0.062284     -0.120230 
 H1478  H    -0.430705     -0.129770     -0.312284 
 H1479  H    -0.069295     -0.187716     -0.129770 
 H1480  H    -0.120230     -0.437716     -0.180705 
 H1481  H    -0.129770     -0.312284     -0.430705 
 H1482  H    -0.120230     -0.319295     -0.062284 
 H1483  H    -0.129770     -0.187716     -0.069295 
 H1484  H    -0.120230     -0.180705     -0.437716 
 H1485  H    -0.120230     -0.062284     -0.319295 
 H1486  H    -0.129770     -0.430705     -0.312284 
 H1487  H    -0.129770     -0.069295     -0.187716 
 C1488  C    -0.068351     -0.201541     -0.403077 
 C1489  C    -0.181649     -0.346923     -0.451541 
 C1490  C    -0.318351     -0.048459     -0.346923 
 C1491  C    -0.431649     -0.403077     -0.298459 
 C1492  C    -0.431649     -0.298459     -0.403077 
 C1493  C    -0.318351     -0.346923     -0.048459 
 C1494  C    -0.181649     -0.451541     -0.346923 
 C1495  C    -0.068351     -0.403077     -0.201541 
 C1496  C    -0.298459     -0.403077     -0.431649 
 C1497  C    -0.201541     -0.068351     -0.403077 
 C1498  C    -0.048459     -0.346923     -0.318351 
 C1499  C    -0.451541     -0.181649     -0.346923 
 C1500  C    -0.451541     -0.346923     -0.181649 
 C1501  C    -0.048459     -0.318351     -0.346923 
 C1502  C    -0.201541     -0.403077     -0.068351 
 C1503  C    -0.298459     -0.431649     -0.403077 
 C1504  C    -0.346923     -0.181649     -0.451541 
 C1505  C    -0.403077     -0.068351     -0.201541 
 C1506  C    -0.346923     -0.048459     -0.318351 
 C1507  C    -0.403077     -0.431649     -0.298459 
 C1508  C    -0.346923     -0.451541     -0.181649 
 C1509  C    -0.346923     -0.318351     -0.048459 
 C1510  C    -0.403077     -0.201541     -0.068351 
 C1511  C    -0.403077     -0.298459     -0.431649 
 C1512  C    -0.311197     -0.003199     -0.188803 
 C1513  C    -0.188803     -0.311197     -0.003199 
 C1514  C    -0.311197     -0.496801     -0.311197 
 C1515  C    -0.438803     -0.438803     -0.246801 
 C1516  C    -0.438803     -0.246801     -0.438803 
 C1517  C    -0.311197     -0.311197     -0.496801 
 C1518  C    -0.188803     -0.003199     -0.311197 
 C1519  C    -0.311197     -0.188803     -0.003199 
 C1520  C    -0.246801     -0.438803     -0.438803 
 C1521  C    -0.253199     -0.061197     -0.438803 
 C1522  C    -0.496801     -0.311197     -0.311197 
 C1523  C    -0.253199     -0.438803     -0.061197 
 C1524  C    -0.318351     -0.451541     -0.153077 
 C1525  C    -0.431649     -0.096923     -0.201541 
 C1526  C    -0.068351     -0.298459     -0.096923 
 C1527  C    -0.181649     -0.153077     -0.048459 
 C1528  C    -0.181649     -0.048459     -0.153077 
 C1529  C    -0.068351     -0.096923     -0.298459 
 C1530  C    -0.431649     -0.201541     -0.096923 
 C1531  C    -0.318351     -0.153077     -0.451541 
 C1532  C    -0.048459     -0.153077     -0.181649 
 C1533  C    -0.451541     -0.318351     -0.153077 
 C1534  C    -0.298459     -0.096923     -0.068351 
 C1535  C    -0.201541     -0.431649     -0.096923 
 C1536  C    -0.201541     -0.096923     -0.431649 
 C1537  C    -0.298459     -0.068351     -0.096923 
 C1538  C    -0.451541     -0.153077     -0.318351 
 C1539  C    -0.048459     -0.181649     -0.153077 
 C1540  C    -0.096923     -0.431649     -0.201541 
 C1541  C    -0.153077     -0.318351     -0.451541 
 C1542  C    -0.096923     -0.298459     -0.068351 
 C1543  C    -0.153077     -0.181649     -0.048459 
 C1544  C    -0.096923     -0.201541     -0.431649 
 C1545  C    -0.096923     -0.068351     -0.298459 
 C1546  C    -0.153077     -0.451541     -0.318351 
 C1547  C    -0.153077     -0.048459     -0.181649 
 C1548  C    -0.061197     -0.253199     -0.438803 
 C1549  C    -0.438803     -0.061197     -0.253199 
 C1550  C    -0.061197     -0.246801     -0.061197 
 C1551  C    -0.188803     -0.188803     -0.496801 
 C1552  C    -0.188803     -0.496801     -0.188803 
 C1553  C    -0.061197     -0.061197     -0.246801 
 C1554  C    -0.438803     -0.253199     -0.061197 
 C1555  C    -0.061197     -0.438803     -0.253199 
 C1556  C    -0.496801     -0.188803     -0.188803 
 C1557  C    -0.003199     -0.311197     -0.188803 
 C1558  C    -0.246801     -0.061197     -0.061197 
 C1559  C    -0.003199     -0.188803     -0.311197 
 N1560  N    -0.045621     -0.234704     -0.407743 
 N1561  N    -0.204379     -0.342257     -0.484704 
 N1562  N    -0.295621     -0.015296     -0.342257 
 N1563  N    -0.454379     -0.407743     -0.265296 
 N1564  N    -0.454379     -0.265296     -0.407743 
 N1565  N    -0.295621     -0.342257     -0.015296 
 N1566  N    -0.204379     -0.484704     -0.342257 
 N1567  N    -0.045621     -0.407743     -0.234704 
 N1568  N    -0.265296     -0.407743     -0.454379 
 N1569  N    -0.234704     -0.045621     -0.407743 
 N1570  N    -0.015296     -0.342257     -0.295621 
 N1571  N    -0.484704     -0.204379     -0.342257 
 N1572  N    -0.484704     -0.342257     -0.204379 
 N1573  N    -0.015296     -0.295621     -0.342257 
 N1574  N    -0.234704     -0.407743     -0.045621 
 N1575  N    -0.265296     -0.454379     -0.407743 
 N1576  N    -0.342257     -0.204379     -0.484704 
 N1577  N    -0.407743     -0.045621     -0.234704 
 N1578  N    -0.342257     -0.015296     -0.295621 
 N1579  N    -0.407743     -0.454379     -0.265296 
 N1580  N    -0.342257     -0.484704     -0.204379 
 N1581  N    -0.342257     -0.295621     -0.015296 
 N1582  N    -0.407743     -0.234704     -0.045621 
 N1583  N    -0.407743     -0.265296     -0.454379 
 N1584  N    -0.295621     -0.484704     -0.157743 
 N1585  N    -0.454379     -0.092257     -0.234704 
 N1586  N    -0.045621     -0.265296     -0.092257 
 N1587  N    -0.204379     -0.157743     -0.015296 
 N1588  N    -0.204379     -0.015296     -0.157743 
 N1589  N    -0.045621     -0.092257     -0.265296 
 N1590  N    -0.454379     -0.234704     -0.092257 
 N1591  N    -0.295621     -0.157743     -0.484704 
 N1592  N    -0.015296     -0.157743     -0.204379 
 N1593  N    -0.484704     -0.295621     -0.157743 
 N1594  N    -0.265296     -0.092257     -0.045621 
 N1595  N    -0.234704     -0.454379     -0.092257 
 N1596  N    -0.234704     -0.092257     -0.454379 
 N1597  N    -0.265296     -0.045621     -0.092257 
 N1598  N    -0.484704     -0.157743     -0.295621 
 N1599  N    -0.015296     -0.204379     -0.157743 
 N1600  N    -0.092257     -0.454379     -0.234704 
 N1601  N    -0.157743     -0.295621     -0.484704 
 N1602  N    -0.092257     -0.265296     -0.045621 
 N1603  N    -0.157743     -0.204379     -0.015296 
 N1604  N    -0.092257     -0.234704     -0.454379 
 N1605  N    -0.092257     -0.045621     -0.265296 
 N1606  N    -0.157743     -0.484704     -0.295621 
 N1607  N    -0.157743     -0.015296     -0.204379 
 Cl1608  Cl    -0.293012     -0.046082     -0.206988 
 Cl1609  Cl    -0.206988     -0.293012     -0.046082 
 Cl1610  Cl    -0.293012     -0.453918     -0.293012 
 Cl1611  Cl    -0.456988     -0.456988     -0.203918 
 Cl1612  Cl    -0.456988     -0.203918     -0.456988 
 Cl1613  Cl    -0.293012     -0.293012     -0.453918 
 Cl1614  Cl    -0.206988     -0.046082     -0.293012 
 Cl1615  Cl    -0.293012     -0.206988     -0.046082 
 Cl1616  Cl    -0.203918     -0.456988     -0.456988 
 Cl1617  Cl    -0.296082     -0.043012     -0.456988 
 Cl1618  Cl    -0.453918     -0.293012     -0.293012 
 Cl1619  Cl    -0.296082     -0.456988     -0.043012 
 Cl1620  Cl    -0.043012     -0.296082     -0.456988 
 Cl1621  Cl    -0.456988     -0.043012     -0.296082 
 Cl1622  Cl    -0.043012     -0.203918     -0.043012 
 Cl1623  Cl    -0.206988     -0.206988     -0.453918 
 Cl1624  Cl    -0.206988     -0.453918     -0.206988 
 Cl1625  Cl    -0.043012     -0.043012     -0.203918 
 Cl1626  Cl    -0.456988     -0.296082     -0.043012 
 Cl1627  Cl    -0.043012     -0.456988     -0.296082 
 Cl1628  Cl    -0.453918     -0.206988     -0.206988 
 Cl1629  Cl    -0.046082     -0.293012     -0.206988 
 Cl1630  Cl    -0.203918     -0.043012     -0.043012 
 Cl1631  Cl    -0.046082     -0.206988     -0.293012 
loop_  
_geom_bond_atom_site_label_1  
_geom_bond_atom_site_label_2  
Zn0   N336 
Zn0   N136 
Zn0   N143 
Zn0   N349 
Zn1   N133 
Zn1   N953 
Zn1   N140 
Zn1   N962 
Zn2   N542 
Zn2   N138 
Zn2   N549 
Zn2   N147 
Zn3   N135 
Zn3   N343 
Zn3   N346 
Zn3   N144 
Zn4   N148 
Zn4   N969 
Zn4   N970 
Zn4   N155 
Zn5   N557 
Zn5   N558 
Zn5   N151 
Zn5   N152 
Zn6   N156 
Zn6   N568 
Zn6   N167 
Zn6   N577 
Zn7   N157 
Zn7   N365 
Zn7   N368 
Zn7   N170 
Zn8   N362 
Zn8   N162 
Zn8   N165 
Zn8   N375 
Zn9   N975 
Zn9   N163 
Zn9   N982 
Zn9   N168 
Zn10   N172 
Zn10   N585 
Zn10   N178 
Zn10   N587 
Zn11   N173 
Zn11   N990 
Zn11   N991 
Zn11   N176 
H12   C60 
H13   C61 
H14   C62 
H15   C63 
H16   C64 
H17   C65 
H18   C66 
H19   C67 
H20   C68 
H21   C69 
H22   C70 
H23   C71 
H24   C72 
H25   C73 
H26   C74 
H27   C75 
H28   C76 
H29   C77 
H30   C78 
H31   C79 
H32   C80 
H33   C81 
H34   C82 
H35   C83 
H36   C96 
H37   C97 
H38   C98 
H39   C99 
H40   C100 
H41   C101 
H42   C102 
H43   C103 
H44   C104 
H45   C105 
H46   C106 
H47   C107 
H48   C108 
H49   C109 
H50   C110 
H51   C111 
H52   C112 
H53   C113 
H54   C114 
H55   C115 
H56   C116 
H57   C117 
H58   C118 
H59   C119 
C60   C116 
C60   N132 
C61   C113 
C61   N133 
C62   C78 
C62   N134 
C63   C79 
C63   N135 
C64   C83 
C64   N136 
C65   C81 
C65   N137 
C66   C118 
C66   N138 
C67   C112 
C67   N139 
C68   C75 
C68   N140 
C69   C108 
C69   N141 
C70   C73 
C70   N142 
C71   C110 
C71   N143 
C72   C105 
C72   N144 
C73   N145 
C74   C107 
C74   N146 
C75   N147 
C76   C103 
C76   N148 
C77   C97 
C77   N149 
C78   N150 
C79   N151 
C80   C96 
C80   N152 
C81   N153 
C82   C102 
C82   N154 
C83   N155 
C84   N560 
C84   N564 
C84   Cl180 
C85   N949 
C85   N989 
C85   Cl181 
C86   N542 
C86   N558 
C86   Cl182 
C87   N135 
C87   N151 
C87   Cl183 
C88   N136 
C88   N155 
C88   Cl184 
C89   N953 
C89   N969 
C89   Cl185 
C90   N546 
C90   N586 
C90   Cl186 
C91   N964 
C91   N979 
C91   Cl187 
C92   N140 
C92   N147 
C92   Cl188 
C93   N141 
C93   N168 
C93   Cl189 
C94   N346 
C94   N349 
C94   Cl190 
C95   N146 
C95   N167 
C95   Cl191 
C96   N156 
C97   N157 
C98   C114 
C98   N158 
C99   C115 
C99   N159 
C100   C119 
C100   N160 
C101   C117 
C101   N161 
C102   N162 
C103   N163 
C104   C111 
C104   N164 
C105   N165 
C106   C109 
C106   N166 
C107   N167 
C108   N168 
C109   N169 
C110   N170 
C111   N171 
C112   N172 
C113   N173 
C114   N174 
C115   N175 
C116   N176 
C117   N177 
C118   N178 
C119   N179 
C120   N132 
C120   N176 
C120   Cl192 
C121   N149 
C121   N157 
C121   Cl193 
C122   N158 
C122   N174 
C122   Cl194 
C123   N975 
C123   N991 
C123   Cl195 
C124   N568 
C124   N587 
C124   Cl196 
C125   N161 
C125   N177 
C125   Cl197 
C126   N154 
C126   N162 
C126   Cl198 
C127   N139 
C127   N172 
C127   Cl199 
C128   N368 
C128   N375 
C128   Cl200 
C129   N348 
C129   N369 
C129   Cl201 
C130   N166 
C130   N169 
C130   Cl202 
C131   N347 
C131   N374 
C131   Cl203 
N132   Zn204 
N133   C901 
N134   Zn410 
N134   C494 
N137   Zn817 
N137   C905 
N138   C498 
N139   Zn207 
N141   Zn410 
N142   Zn207 
N142   C298 
N143   C335 
N144   C333 
N145   Zn204 
N145   C298 
N146   Zn817 
N148   C907 
N149   Zn413 
N150   Zn413 
N150   C494 
N152   C492 
N153   Zn820 
N153   C905 
N154   Zn820 
N156   C492 
N158   Zn212 
N159   Zn825 
N159   C939 
N160   Zn414 
N160   C532 
N161   Zn211 
N163   C907 
N164   Zn211 
N164   C332 
N165   C333 
N166   Zn825 
N169   Zn414 
N170   C335 
N171   Zn212 
N171   C332 
N173   C901 
N174   Zn827 
N175   Zn827 
N175   C939 
N177   Zn418 
N178   C498 
N179   Zn418 
N179   C532 
Zn204   N340 
Zn204   N347 
Zn205   N337 
Zn205   N1157 
Zn205   N344 
Zn205   N1166 
Zn206   N746 
Zn206   N342 
Zn206   N753 
Zn206   N351 
Zn207   N339 
Zn207   N348 
Zn208   N352 
Zn208   N1173 
Zn208   N1174 
Zn208   N359 
Zn209   N761 
Zn209   N762 
Zn209   N355 
Zn209   N356 
Zn210   N360 
Zn210   N772 
Zn210   N371 
Zn210   N781 
Zn211   N361 
Zn211   N374 
Zn212   N366 
Zn212   N369 
Zn213   N1179 
Zn213   N367 
Zn213   N1186 
Zn213   N372 
Zn214   N376 
Zn214   N789 
Zn214   N382 
Zn214   N791 
Zn215   N377 
Zn215   N1194 
Zn215   N1195 
Zn215   N380 
H216   C264 
H217   C265 
H218   C266 
H219   C267 
H220   C268 
H221   C269 
H222   C270 
H223   C271 
H224   C272 
H225   C273 
H226   C274 
H227   C275 
H228   C276 
H229   C277 
H230   C278 
H231   C279 
H232   C280 
H233   C281 
H234   C282 
H235   C283 
H236   C284 
H237   C285 
H238   C286 
H239   C287 
H240   C300 
H241   C301 
H242   C302 
H243   C303 
H244   C304 
H245   C305 
H246   C306 
H247   C307 
H248   C308 
H249   C309 
H250   C310 
H251   C311 
H252   C312 
H253   C313 
H254   C314 
H255   C315 
H256   C316 
H257   C317 
H258   C318 
H259   C319 
H260   C320 
H261   C321 
H262   C322 
H263   C323 
C264   C320 
C264   N336 
C265   C317 
C265   N337 
C266   C282 
C266   N338 
C267   C283 
C267   N339 
C268   C287 
C268   N340 
C269   C285 
C269   N341 
C270   C322 
C270   N342 
C271   C316 
C271   N343 
C272   C279 
C272   N344 
C273   C312 
C273   N345 
C274   C277 
C274   N346 
C275   C314 
C275   N347 
C276   C309 
C276   N348 
C277   N349 
C278   C311 
C278   N350 
C279   N351 
C280   C307 
C280   N352 
C281   C301 
C281   N353 
C282   N354 
C283   N355 
C284   C300 
C284   N356 
C285   N357 
C286   C306 
C286   N358 
C287   N359 
C288   N764 
C288   N768 
C288   Cl384 
C289   N1153 
C289   N1193 
C289   Cl385 
C290   N746 
C290   N762 
C290   Cl386 
C291   N339 
C291   N355 
C291   Cl387 
C292   N340 
C292   N359 
C292   Cl388 
C293   N1157 
C293   N1173 
C293   Cl389 
C294   N750 
C294   N790 
C294   Cl390 
C295   N1168 
C295   N1183 
C295   Cl391 
C296   N344 
C296   N351 
C296   Cl392 
C297   N345 
C297   N372 
C297   Cl393 
C298   Cl394 
C299   N350 
C299   N371 
C299   Cl395 
C300   N360 
C301   N361 
C302   C318 
C302   N362 
C303   C319 
C303   N363 
C304   C323 
C304   N364 
C305   C321 
C305   N365 
C306   N366 
C307   N367 
C308   C315 
C308   N368 
C309   N369 
C310   C313 
C310   N370 
C311   N371 
C312   N372 
C313   N373 
C314   N374 
C315   N375 
C316   N376 
C317   N377 
C318   N378 
C319   N379 
C320   N380 
C321   N381 
C322   N382 
C323   N383 
C324   N336 
C324   N380 
C324   Cl396 
C325   N353 
C325   N361 
C325   Cl397 
C326   N362 
C326   N378 
C326   Cl398 
C327   N1179 
C327   N1195 
C327   Cl399 
C328   N772 
C328   N791 
C328   Cl400 
C329   N365 
C329   N381 
C329   Cl401 
C330   N358 
C330   N366 
C330   Cl402 
C331   N343 
C331   N376 
C331   Cl403 
C332   Cl404 
C333   Cl405 
C334   N370 
C334   N373 
C334   Cl406 
C335   Cl407 
N337   C1105 
N338   Zn614 
N338   C698 
N341   Zn1021 
N341   C1109 
N342   C702 
N345   Zn614 
N350   Zn1021 
N352   C1111 
N353   Zn617 
N354   Zn617 
N354   C698 
N356   C696 
N357   Zn1024 
N357   C1109 
N358   Zn1024 
N360   C696 
N363   Zn1029 
N363   C1143 
N364   Zn618 
N364   C736 
N367   C1111 
N370   Zn1029 
N373   Zn618 
N377   C1105 
N378   Zn1031 
N379   Zn1031 
N379   C1143 
N381   Zn622 
N382   C702 
N383   Zn622 
N383   C736 
Zn408   N744 
Zn408   N544 
Zn408   N551 
Zn408   N757 
Zn409   N541 
Zn409   N1361 
Zn409   N548 
Zn409   N1370 
Zn410   N546 
Zn410   N555 
Zn411   N543 
Zn411   N751 
Zn411   N754 
Zn411   N552 
Zn412   N556 
Zn412   N1377 
Zn412   N1378 
Zn412   N563 
Zn413   N559 
Zn413   N560 
Zn414   N564 
Zn414   N575 
Zn415   N565 
Zn415   N773 
Zn415   N776 
Zn415   N578 
Zn416   N770 
Zn416   N570 
Zn416   N573 
Zn416   N783 
Zn417   N1383 
Zn417   N571 
Zn417   N1390 
Zn417   N576 
Zn418   N580 
Zn418   N586 
Zn419   N581 
Zn419   N1398 
Zn419   N1399 
Zn419   N584 
H420   C468 
H421   C469 
H422   C470 
H423   C471 
H424   C472 
H425   C473 
H426   C474 
H427   C475 
H428   C476 
H429   C477 
H430   C478 
H431   C479 
H432   C480 
H433   C481 
H434   C482 
H435   C483 
H436   C484 
H437   C485 
H438   C486 
H439   C487 
H440   C488 
H441   C489 
H442   C490 
H443   C491 
H444   C504 
H445   C505 
H446   C506 
H447   C507 
H448   C508 
H449   C509 
H450   C510 
H451   C511 
H452   C512 
H453   C513 
H454   C514 
H455   C515 
H456   C516 
H457   C517 
H458   C518 
H459   C519 
H460   C520 
H461   C521 
H462   C522 
H463   C523 
H464   C524 
H465   C525 
H466   C526 
H467   C527 
C468   C524 
C468   N540 
C469   C521 
C469   N541 
C470   C486 
C470   N542 
C471   C487 
C471   N543 
C472   C491 
C472   N544 
C473   C489 
C473   N545 
C474   C526 
C474   N546 
C475   C520 
C475   N547 
C476   C483 
C476   N548 
C477   C516 
C477   N549 
C478   C481 
C478   N550 
C479   C518 
C479   N551 
C480   C513 
C480   N552 
C481   N553 
C482   C515 
C482   N554 
C483   N555 
C484   C511 
C484   N556 
C485   C505 
C485   N557 
C486   N558 
C487   N559 
C488   C504 
C488   N560 
C489   N561 
C490   C510 
C490   N562 
C491   N563 
C492   Cl588 
C493   N1357 
C493   N1397 
C493   Cl589 
C494   Cl590 
C495   N543 
C495   N559 
C495   Cl591 
C496   N544 
C496   N563 
C496   Cl592 
C497   N1361 
C497   N1377 
C497   Cl593 
C498   Cl594 
C499   N1372 
C499   N1387 
C499   Cl595 
C500   N548 
C500   N555 
C500   Cl596 
C501   N549 
C501   N576 
C501   Cl597 
C502   N754 
C502   N757 
C502   Cl598 
C503   N554 
C503   N575 
C503   Cl599 
C504   N564 
C505   N565 
C506   C522 
C506   N566 
C507   C523 
C507   N567 
C508   C527 
C508   N568 
C509   C525 
C509   N569 
C510   N570 
C511   N571 
C512   C519 
C512   N572 
C513   N573 
C514   C517 
C514   N574 
C515   N575 
C516   N576 
C517   N577 
C518   N578 
C519   N579 
C520   N580 
C521   N581 
C522   N582 
C523   N583 
C524   N584 
C525   N585 
C526   N586 
C527   N587 
C528   N540 
C528   N584 
C528   Cl600 
C529   N557 
C529   N565 
C529   Cl601 
C530   N566 
C530   N582 
C530   Cl602 
C531   N1383 
C531   N1399 
C531   Cl603 
C532   Cl604 
C533   N569 
C533   N585 
C533   Cl605 
C534   N562 
C534   N570 
C534   Cl606 
C535   N547 
C535   N580 
C535   Cl607 
C536   N776 
C536   N783 
C536   Cl608 
C537   N756 
C537   N777 
C537   Cl609 
C538   N574 
C538   N577 
C538   Cl610 
C539   N755 
C539   N782 
C539   Cl611 
N540   Zn612 
N541   C1309 
N545   Zn1225 
N545   C1313 
N547   Zn615 
N550   Zn615 
N550   C706 
N551   C743 
N552   C741 
N553   Zn612 
N553   C706 
N554   Zn1225 
N556   C1315 
N561   Zn1228 
N561   C1313 
N562   Zn1228 
N566   Zn620 
N567   Zn1233 
N567   C1347 
N569   Zn619 
N571   C1315 
N572   Zn619 
N572   C740 
N573   C741 
N574   Zn1233 
N578   C743 
N579   Zn620 
N579   C740 
N581   C1309 
N582   Zn1235 
N583   Zn1235 
N583   C1347 
Zn612   N748 
Zn612   N755 
Zn613   N745 
Zn613   N1565 
Zn613   N752 
Zn613   N1574 
Zn614   N750 
Zn614   N759 
Zn615   N747 
Zn615   N756 
Zn616   N760 
Zn616   N1581 
Zn616   N1582 
Zn616   N767 
Zn617   N763 
Zn617   N764 
Zn618   N768 
Zn618   N779 
Zn619   N769 
Zn619   N782 
Zn620   N774 
Zn620   N777 
Zn621   N1587 
Zn621   N775 
Zn621   N1594 
Zn621   N780 
Zn622   N784 
Zn622   N790 
Zn623   N785 
Zn623   N1602 
Zn623   N1603 
Zn623   N788 
H624   C672 
H625   C673 
H626   C674 
H627   C675 
H628   C676 
H629   C677 
H630   C678 
H631   C679 
H632   C680 
H633   C681 
H634   C682 
H635   C683 
H636   C684 
H637   C685 
H638   C686 
H639   C687 
H640   C688 
H641   C689 
H642   C690 
H643   C691 
H644   C692 
H645   C693 
H646   C694 
H647   C695 
H648   C708 
H649   C709 
H650   C710 
H651   C711 
H652   C712 
H653   C713 
H654   C714 
H655   C715 
H656   C716 
H657   C717 
H658   C718 
H659   C719 
H660   C720 
H661   C721 
H662   C722 
H663   C723 
H664   C724 
H665   C725 
H666   C726 
H667   C727 
H668   C728 
H669   C729 
H670   C730 
H671   C731 
C672   C728 
C672   N744 
C673   C725 
C673   N745 
C674   C690 
C674   N746 
C675   C691 
C675   N747 
C676   C695 
C676   N748 
C677   C693 
C677   N749 
C678   C730 
C678   N750 
C679   C724 
C679   N751 
C680   C687 
C680   N752 
C681   C720 
C681   N753 
C682   C685 
C682   N754 
C683   C722 
C683   N755 
C684   C717 
C684   N756 
C685   N757 
C686   C719 
C686   N758 
C687   N759 
C688   C715 
C688   N760 
C689   C709 
C689   N761 
C690   N762 
C691   N763 
C692   C708 
C692   N764 
C693   N765 
C694   C714 
C694   N766 
C695   N767 
C696   Cl792 
C697   N1561 
C697   N1601 
C697   Cl793 
C698   Cl794 
C699   N747 
C699   N763 
C699   Cl795 
C700   N748 
C700   N767 
C700   Cl796 
C701   N1565 
C701   N1581 
C701   Cl797 
C702   Cl798 
C703   N1576 
C703   N1591 
C703   Cl799 
C704   N752 
C704   N759 
C704   Cl800 
C705   N753 
C705   N780 
C705   Cl801 
C706   Cl802 
C707   N758 
C707   N779 
C707   Cl803 
C708   N768 
C709   N769 
C710   C726 
C710   N770 
C711   C727 
C711   N771 
C712   C731 
C712   N772 
C713   C729 
C713   N773 
C714   N774 
C715   N775 
C716   C723 
C716   N776 
C717   N777 
C718   C721 
C718   N778 
C719   N779 
C720   N780 
C721   N781 
C722   N782 
C723   N783 
C724   N784 
C725   N785 
C726   N786 
C727   N787 
C728   N788 
C729   N789 
C730   N790 
C731   N791 
C732   N744 
C732   N788 
C732   Cl804 
C733   N761 
C733   N769 
C733   Cl805 
C734   N770 
C734   N786 
C734   Cl806 
C735   N1587 
C735   N1603 
C735   Cl807 
C736   Cl808 
C737   N773 
C737   N789 
C737   Cl809 
C738   N766 
C738   N774 
C738   Cl810 
C739   N751 
C739   N784 
C739   Cl811 
C740   Cl812 
C741   Cl813 
C742   N778 
C742   N781 
C742   Cl814 
C743   Cl815 
N745   C1513 
N749   Zn1429 
N749   C1517 
N758   Zn1429 
N760   C1519 
N765   Zn1432 
N765   C1517 
N766   Zn1432 
N771   Zn1437 
N771   C1551 
N775   C1519 
N778   Zn1437 
N785   C1513 
N786   Zn1439 
N787   Zn1439 
N787   C1551 
Zn816   N1152 
Zn816   N952 
Zn816   N959 
Zn816   N1165 
Zn817   N949 
Zn817   N956 
Zn818   N1358 
Zn818   N954 
Zn818   N1365 
Zn818   N963 
Zn819   N951 
Zn819   N1159 
Zn819   N1162 
Zn819   N960 
Zn820   N964 
Zn820   N971 
Zn821   N1373 
Zn821   N1374 
Zn821   N967 
Zn821   N968 
Zn822   N972 
Zn822   N1384 
Zn822   N983 
Zn822   N1393 
Zn823   N973 
Zn823   N1181 
Zn823   N1184 
Zn823   N986 
Zn824   N1178 
Zn824   N978 
Zn824   N981 
Zn824   N1191 
Zn825   N979 
Zn825   N984 
Zn826   N988 
Zn826   N1401 
Zn826   N994 
Zn826   N1403 
Zn827   N989 
Zn827   N992 
H828   C876 
H829   C877 
H830   C878 
H831   C879 
H832   C880 
H833   C881 
H834   C882 
H835   C883 
H836   C884 
H837   C885 
H838   C886 
H839   C887 
H840   C888 
H841   C889 
H842   C890 
H843   C891 
H844   C892 
H845   C893 
H846   C894 
H847   C895 
H848   C896 
H849   C897 
H850   C898 
H851   C899 
H852   C912 
H853   C913 
H854   C914 
H855   C915 
H856   C916 
H857   C917 
H858   C918 
H859   C919 
H860   C920 
H861   C921 
H862   C922 
H863   C923 
H864   C924 
H865   C925 
H866   C926 
H867   C927 
H868   C928 
H869   C929 
H870   C930 
H871   C931 
H872   C932 
H873   C933 
H874   C934 
H875   C935 
C876   C932 
C876   N948 
C877   C929 
C877   N949 
C878   C894 
C878   N950 
C879   C895 
C879   N951 
C880   C899 
C880   N952 
C881   C897 
C881   N953 
C882   C934 
C882   N954 
C883   C928 
C883   N955 
C884   C891 
C884   N956 
C885   C924 
C885   N957 
C886   C889 
C886   N958 
C887   C926 
C887   N959 
C888   C921 
C888   N960 
C889   N961 
C890   C923 
C890   N962 
C891   N963 
C892   C919 
C892   N964 
C893   C913 
C893   N965 
C894   N966 
C895   N967 
C896   C912 
C896   N968 
C897   N969 
C898   C918 
C898   N970 
C899   N971 
C900   N1376 
C900   N1380 
C900   Cl996 
C901   Cl997 
C902   N1358 
C902   N1374 
C902   Cl998 
C903   N951 
C903   N967 
C903   Cl999 
C904   N952 
C904   N971 
C904   Cl1000 
C905   Cl1001 
C906   N1362 
C906   N1402 
C906   Cl1002 
C907   Cl1003 
C908   N956 
C908   N963 
C908   Cl1004 
C909   N957 
C909   N984 
C909   Cl1005 
C910   N1162 
C910   N1165 
C910   Cl1006 
C911   N962 
C911   N983 
C911   Cl1007 
C912   N972 
C913   N973 
C914   C930 
C914   N974 
C915   C931 
C915   N975 
C916   C935 
C916   N976 
C917   C933 
C917   N977 
C918   N978 
C919   N979 
C920   C927 
C920   N980 
C921   N981 
C922   C925 
C922   N982 
C923   N983 
C924   N984 
C925   N985 
C926   N986 
C927   N987 
C928   N988 
C929   N989 
C930   N990 
C931   N991 
C932   N992 
C933   N993 
C934   N994 
C935   N995 
C936   N948 
C936   N992 
C936   Cl1008 
C937   N965 
C937   N973 
C937   Cl1009 
C938   N974 
C938   N990 
C938   Cl1010 
C939   Cl1011 
C940   N1384 
C940   N1403 
C940   Cl1012 
C941   N977 
C941   N993 
C941   Cl1013 
C942   N970 
C942   N978 
C942   Cl1014 
C943   N955 
C943   N988 
C943   Cl1015 
C944   N1184 
C944   N1191 
C944   Cl1016 
C945   N1164 
C945   N1185 
C945   Cl1017 
C946   N982 
C946   N985 
C946   Cl1018 
C947   N1163 
C947   N1190 
C947   Cl1019 
N948   Zn1020 
N950   Zn1226 
N950   C1310 
N954   C1314 
N955   Zn1023 
N957   Zn1226 
N958   Zn1023 
N958   C1114 
N959   C1151 
N960   C1149 
N961   Zn1020 
N961   C1114 
N965   Zn1229 
N966   Zn1229 
N966   C1310 
N968   C1308 
N972   C1308 
N974   Zn1028 
N976   Zn1230 
N976   C1348 
N977   Zn1027 
N980   Zn1027 
N980   C1148 
N981   C1149 
N985   Zn1230 
N986   C1151 
N987   Zn1028 
N987   C1148 
N993   Zn1234 
N994   C1314 
N995   Zn1234 
N995   C1348 
Zn1020   N1156 
Zn1020   N1163 
Zn1021   N1153 
Zn1021   N1160 
Zn1022   N1562 
Zn1022   N1158 
Zn1022   N1569 
Zn1022   N1167 
Zn1023   N1155 
Zn1023   N1164 
Zn1024   N1168 
Zn1024   N1175 
Zn1025   N1577 
Zn1025   N1578 
Zn1025   N1171 
Zn1025   N1172 
Zn1026   N1176 
Zn1026   N1588 
Zn1026   N1187 
Zn1026   N1597 
Zn1027   N1177 
Zn1027   N1190 
Zn1028   N1182 
Zn1028   N1185 
Zn1029   N1183 
Zn1029   N1188 
Zn1030   N1192 
Zn1030   N1605 
Zn1030   N1198 
Zn1030   N1607 
Zn1031   N1193 
Zn1031   N1196 
H1032   C1080 
H1033   C1081 
H1034   C1082 
H1035   C1083 
H1036   C1084 
H1037   C1085 
H1038   C1086 
H1039   C1087 
H1040   C1088 
H1041   C1089 
H1042   C1090 
H1043   C1091 
H1044   C1092 
H1045   C1093 
H1046   C1094 
H1047   C1095 
H1048   C1096 
H1049   C1097 
H1050   C1098 
H1051   C1099 
H1052   C1100 
H1053   C1101 
H1054   C1102 
H1055   C1103 
H1056   C1116 
H1057   C1117 
H1058   C1118 
H1059   C1119 
H1060   C1120 
H1061   C1121 
H1062   C1122 
H1063   C1123 
H1064   C1124 
H1065   C1125 
H1066   C1126 
H1067   C1127 
H1068   C1128 
H1069   C1129 
H1070   C1130 
H1071   C1131 
H1072   C1132 
H1073   C1133 
H1074   C1134 
H1075   C1135 
H1076   C1136 
H1077   C1137 
H1078   C1138 
H1079   C1139 
C1080   C1136 
C1080   N1152 
C1081   C1133 
C1081   N1153 
C1082   C1098 
C1082   N1154 
C1083   C1099 
C1083   N1155 
C1084   C1103 
C1084   N1156 
C1085   C1101 
C1085   N1157 
C1086   C1138 
C1086   N1158 
C1087   C1132 
C1087   N1159 
C1088   C1095 
C1088   N1160 
C1089   C1128 
C1089   N1161 
C1090   C1093 
C1090   N1162 
C1091   C1130 
C1091   N1163 
C1092   C1125 
C1092   N1164 
C1093   N1165 
C1094   C1127 
C1094   N1166 
C1095   N1167 
C1096   C1123 
C1096   N1168 
C1097   C1117 
C1097   N1169 
C1098   N1170 
C1099   N1171 
C1100   C1116 
C1100   N1172 
C1101   N1173 
C1102   C1122 
C1102   N1174 
C1103   N1175 
C1104   N1580 
C1104   N1584 
C1104   Cl1200 
C1105   Cl1201 
C1106   N1562 
C1106   N1578 
C1106   Cl1202 
C1107   N1155 
C1107   N1171 
C1107   Cl1203 
C1108   N1156 
C1108   N1175 
C1108   Cl1204 
C1109   Cl1205 
C1110   N1566 
C1110   N1606 
C1110   Cl1206 
C1111   Cl1207 
C1112   N1160 
C1112   N1167 
C1112   Cl1208 
C1113   N1161 
C1113   N1188 
C1113   Cl1209 
C1114   Cl1210 
C1115   N1166 
C1115   N1187 
C1115   Cl1211 
C1116   N1176 
C1117   N1177 
C1118   C1134 
C1118   N1178 
C1119   C1135 
C1119   N1179 
C1120   C1139 
C1120   N1180 
C1121   C1137 
C1121   N1181 
C1122   N1182 
C1123   N1183 
C1124   C1131 
C1124   N1184 
C1125   N1185 
C1126   C1129 
C1126   N1186 
C1127   N1187 
C1128   N1188 
C1129   N1189 
C1130   N1190 
C1131   N1191 
C1132   N1192 
C1133   N1193 
C1134   N1194 
C1135   N1195 
C1136   N1196 
C1137   N1197 
C1138   N1198 
C1139   N1199 
C1140   N1152 
C1140   N1196 
C1140   Cl1212 
C1141   N1169 
C1141   N1177 
C1141   Cl1213 
C1142   N1178 
C1142   N1194 
C1142   Cl1214 
C1143   Cl1215 
C1144   N1588 
C1144   N1607 
C1144   Cl1216 
C1145   N1181 
C1145   N1197 
C1145   Cl1217 
C1146   N1174 
C1146   N1182 
C1146   Cl1218 
C1147   N1159 
C1147   N1192 
C1147   Cl1219 
C1148   Cl1220 
C1149   Cl1221 
C1150   N1186 
C1150   N1189 
C1150   Cl1222 
C1151   Cl1223 
N1154   Zn1430 
N1154   C1514 
N1158   C1518 
N1161   Zn1430 
N1169   Zn1433 
N1170   Zn1433 
N1170   C1514 
N1172   C1512 
N1176   C1512 
N1180   Zn1434 
N1180   C1552 
N1189   Zn1434 
N1197   Zn1438 
N1198   C1518 
N1199   Zn1438 
N1199   C1552 
Zn1224   N1560 
Zn1224   N1360 
Zn1224   N1367 
Zn1224   N1573 
Zn1225   N1357 
Zn1225   N1364 
Zn1226   N1362 
Zn1226   N1371 
Zn1227   N1359 
Zn1227   N1567 
Zn1227   N1570 
Zn1227   N1368 
Zn1228   N1372 
Zn1228   N1379 
Zn1229   N1375 
Zn1229   N1376 
Zn1230   N1380 
Zn1230   N1391 
Zn1231   N1381 
Zn1231   N1589 
Zn1231   N1592 
Zn1231   N1394 
Zn1232   N1586 
Zn1232   N1386 
Zn1232   N1389 
Zn1232   N1599 
Zn1233   N1387 
Zn1233   N1392 
Zn1234   N1396 
Zn1234   N1402 
Zn1235   N1397 
Zn1235   N1400 
H1236   C1284 
H1237   C1285 
H1238   C1286 
H1239   C1287 
H1240   C1288 
H1241   C1289 
H1242   C1290 
H1243   C1291 
H1244   C1292 
H1245   C1293 
H1246   C1294 
H1247   C1295 
H1248   C1296 
H1249   C1297 
H1250   C1298 
H1251   C1299 
H1252   C1300 
H1253   C1301 
H1254   C1302 
H1255   C1303 
H1256   C1304 
H1257   C1305 
H1258   C1306 
H1259   C1307 
H1260   C1320 
H1261   C1321 
H1262   C1322 
H1263   C1323 
H1264   C1324 
H1265   C1325 
H1266   C1326 
H1267   C1327 
H1268   C1328 
H1269   C1329 
H1270   C1330 
H1271   C1331 
H1272   C1332 
H1273   C1333 
H1274   C1334 
H1275   C1335 
H1276   C1336 
H1277   C1337 
H1278   C1338 
H1279   C1339 
H1280   C1340 
H1281   C1341 
H1282   C1342 
H1283   C1343 
C1284   C1340 
C1284   N1356 
C1285   C1337 
C1285   N1357 
C1286   C1302 
C1286   N1358 
C1287   C1303 
C1287   N1359 
C1288   C1307 
C1288   N1360 
C1289   C1305 
C1289   N1361 
C1290   C1342 
C1290   N1362 
C1291   C1336 
C1291   N1363 
C1292   C1299 
C1292   N1364 
C1293   C1332 
C1293   N1365 
C1294   C1297 
C1294   N1366 
C1295   C1334 
C1295   N1367 
C1296   C1329 
C1296   N1368 
C1297   N1369 
C1298   C1331 
C1298   N1370 
C1299   N1371 
C1300   C1327 
C1300   N1372 
C1301   C1321 
C1301   N1373 
C1302   N1374 
C1303   N1375 
C1304   C1320 
C1304   N1376 
C1305   N1377 
C1306   C1326 
C1306   N1378 
C1307   N1379 
C1308   Cl1404 
C1309   Cl1405 
C1310   Cl1406 
C1311   N1359 
C1311   N1375 
C1311   Cl1407 
C1312   N1360 
C1312   N1379 
C1312   Cl1408 
C1313   Cl1409 
C1314   Cl1410 
C1315   Cl1411 
C1316   N1364 
C1316   N1371 
C1316   Cl1412 
C1317   N1365 
C1317   N1392 
C1317   Cl1413 
C1318   N1570 
C1318   N1573 
C1318   Cl1414 
C1319   N1370 
C1319   N1391 
C1319   Cl1415 
C1320   N1380 
C1321   N1381 
C1322   C1338 
C1322   N1382 
C1323   C1339 
C1323   N1383 
C1324   C1343 
C1324   N1384 
C1325   C1341 
C1325   N1385 
C1326   N1386 
C1327   N1387 
C1328   C1335 
C1328   N1388 
C1329   N1389 
C1330   C1333 
C1330   N1390 
C1331   N1391 
C1332   N1392 
C1333   N1393 
C1334   N1394 
C1335   N1395 
C1336   N1396 
C1337   N1397 
C1338   N1398 
C1339   N1399 
C1340   N1400 
C1341   N1401 
C1342   N1402 
C1343   N1403 
C1344   N1356 
C1344   N1400 
C1344   Cl1416 
C1345   N1373 
C1345   N1381 
C1345   Cl1417 
C1346   N1382 
C1346   N1398 
C1346   Cl1418 
C1347   Cl1419 
C1348   Cl1420 
C1349   N1385 
C1349   N1401 
C1349   Cl1421 
C1350   N1378 
C1350   N1386 
C1350   Cl1422 
C1351   N1363 
C1351   N1396 
C1351   Cl1423 
C1352   N1592 
C1352   N1599 
C1352   Cl1424 
C1353   N1572 
C1353   N1593 
C1353   Cl1425 
C1354   N1390 
C1354   N1393 
C1354   Cl1426 
C1355   N1571 
C1355   N1598 
C1355   Cl1427 
N1356   Zn1428 
N1363   Zn1431 
N1366   Zn1431 
N1366   C1522 
N1367   C1559 
N1368   C1557 
N1369   Zn1428 
N1369   C1522 
N1382   Zn1436 
N1385   Zn1435 
N1388   Zn1435 
N1388   C1556 
N1389   C1557 
N1394   C1559 
N1395   Zn1436 
N1395   C1556 
Zn1428   N1564 
Zn1428   N1571 
Zn1429   N1561 
Zn1429   N1568 
Zn1430   N1566 
Zn1430   N1575 
Zn1431   N1563 
Zn1431   N1572 
Zn1432   N1576 
Zn1432   N1583 
Zn1433   N1579 
Zn1433   N1580 
Zn1434   N1584 
Zn1434   N1595 
Zn1435   N1585 
Zn1435   N1598 
Zn1436   N1590 
Zn1436   N1593 
Zn1437   N1591 
Zn1437   N1596 
Zn1438   N1600 
Zn1438   N1606 
Zn1439   N1601 
Zn1439   N1604 
H1440   C1488 
H1441   C1489 
H1442   C1490 
H1443   C1491 
H1444   C1492 
H1445   C1493 
H1446   C1494 
H1447   C1495 
H1448   C1496 
H1449   C1497 
H1450   C1498 
H1451   C1499 
H1452   C1500 
H1453   C1501 
H1454   C1502 
H1455   C1503 
H1456   C1504 
H1457   C1505 
H1458   C1506 
H1459   C1507 
H1460   C1508 
H1461   C1509 
H1462   C1510 
H1463   C1511 
H1464   C1524 
H1465   C1525 
H1466   C1526 
H1467   C1527 
H1468   C1528 
H1469   C1529 
H1470   C1530 
H1471   C1531 
H1472   C1532 
H1473   C1533 
H1474   C1534 
H1475   C1535 
H1476   C1536 
H1477   C1537 
H1478   C1538 
H1479   C1539 
H1480   C1540 
H1481   C1541 
H1482   C1542 
H1483   C1543 
H1484   C1544 
H1485   C1545 
H1486   C1546 
H1487   C1547 
C1488   C1544 
C1488   N1560 
C1489   C1541 
C1489   N1561 
C1490   C1506 
C1490   N1562 
C1491   C1507 
C1491   N1563 
C1492   C1511 
C1492   N1564 
C1493   C1509 
C1493   N1565 
C1494   C1546 
C1494   N1566 
C1495   C1540 
C1495   N1567 
C1496   C1503 
C1496   N1568 
C1497   C1536 
C1497   N1569 
C1498   C1501 
C1498   N1570 
C1499   C1538 
C1499   N1571 
C1500   C1533 
C1500   N1572 
C1501   N1573 
C1502   C1535 
C1502   N1574 
C1503   N1575 
C1504   C1531 
C1504   N1576 
C1505   C1525 
C1505   N1577 
C1506   N1578 
C1507   N1579 
C1508   C1524 
C1508   N1580 
C1509   N1581 
C1510   C1530 
C1510   N1582 
C1511   N1583 
C1512   Cl1608 
C1513   Cl1609 
C1514   Cl1610 
C1515   N1563 
C1515   N1579 
C1515   Cl1611 
C1516   N1564 
C1516   N1583 
C1516   Cl1612 
C1517   Cl1613 
C1518   Cl1614 
C1519   Cl1615 
C1520   N1568 
C1520   N1575 
C1520   Cl1616 
C1521   N1569 
C1521   N1596 
C1521   Cl1617 
C1522   Cl1618 
C1523   N1574 
C1523   N1595 
C1523   Cl1619 
C1524   N1584 
C1525   N1585 
C1526   C1542 
C1526   N1586 
C1527   C1543 
C1527   N1587 
C1528   C1547 
C1528   N1588 
C1529   C1545 
C1529   N1589 
C1530   N1590 
C1531   N1591 
C1532   C1539 
C1532   N1592 
C1533   N1593 
C1534   C1537 
C1534   N1594 
C1535   N1595 
C1536   N1596 
C1537   N1597 
C1538   N1598 
C1539   N1599 
C1540   N1600 
C1541   N1601 
C1542   N1602 
C1543   N1603 
C1544   N1604 
C1545   N1605 
C1546   N1606 
C1547   N1607 
C1548   N1560 
C1548   N1604 
C1548   Cl1620 
C1549   N1577 
C1549   N1585 
C1549   Cl1621 
C1550   N1586 
C1550   N1602 
C1550   Cl1622 
C1551   Cl1623 
C1552   Cl1624 
C1553   N1589 
C1553   N1605 
C1553   Cl1625 
C1554   N1582 
C1554   N1590 
C1554   Cl1626 
C1555   N1567 
C1555   N1600 
C1555   Cl1627 
C1556   Cl1628 
C1557   Cl1629 
C1558   N1594 
C1558   N1597 
C1558   Cl1630 
C1559   Cl1631 
  
#END  
